Blatter2.mol
  ChemDraw10252411323D

  0  0  0     0  0              0 V3000
M  V30 BEGIN CTAB
M  V30 COUNTS 46 52 1 0 0
M  V30 BEGIN ATOM
M  V30 1 C 0.578686 1.758214 -1.317513 0
M  V30 2 C 1.505903 1.016995 -0.346673 0
M  V30 3 C -0.932659 1.500210 -1.359656 0
M  V30 4 C 1.175041 2.828965 -2.237789 0
M  V30 5 C 3.024887 1.095663 -0.535738 0
M  V30 6 C -1.851309 2.591213 -1.920042 0
M  V30 7 C 2.693008 2.924434 -2.424130 0
M  V30 8 C 0.254128 3.822635 -2.953762 0
M  V30 9 C 3.618099 2.015840 -1.607816 0
M  V30 10 C -1.259473 3.752237 -2.726030 0
M  V30 11 C 0.937576 0.249748 0.852681 0
M  V30 12 C -1.560341 0.188021 -0.873470 0
M  V30 13 C 3.957963 0.278344 0.364129 0
M  V30 14 C -3.362330 2.517411 -1.676813 0
M  V30 15 C 1.868569 -0.551634 1.768828 0
M  V30 16 C -3.076779 0.080557 -0.668086 0
M  V30 17 C 3.378726 -0.558448 1.509637 0
M  V30 18 C -3.965866 1.285130 -0.994816 0
M  V30 19 H 3.154583 3.710471 -3.201690 0
M  V30 20 H 0.717704 4.668839 -3.664073 0
M  V30 21 H 4.802897 2.050172 -1.782575 0
M  V30 22 H -1.978941 4.588424 -3.193582 0
M  V30 23 H 5.141450 0.303911 0.179419 0
M  V30 24 H -4.071026 3.417939 -2.026427 0
M  V30 25 H 4.105059 -1.205465 2.209087 0
M  V30 26 H -5.141450 1.240366 -0.768186 0
M  V30 27 O -3.751505 -1.241655 -0.252503 0
M  V30 28 C -2.846971 -2.001265 0.737174 0
M  V30 29 C -1.342822 -2.086431 0.471059 0
M  V30 30 N -0.693189 -1.077996 -0.539701 0
M  V30 31 C -0.443593 -3.079083 1.207596 0
M  V30 32 C -3.417718 -2.779147 1.927988 0
M  V30 33 C -2.506367 -3.712140 2.735513 0
M  V30 34 C -1.030574 -3.898766 2.361505 0
M  V30 35 N 1.050761 -3.192654 0.737221 0 RAD=2
M  V30 36 C 1.555853 -2.307154 -0.463523 0
M  V30 37 N 0.719886 -1.309865 -1.056283 0
M  V30 38 H 1.414613 -1.173885 2.686506 0
M  V30 39 H -0.236734 0.276245 1.088146 0
M  V30 40 H -4.578151 -2.681059 2.209436 0
M  V30 41 H -2.959572 -4.318651 3.664073 0
M  V30 42 H -0.343561 -4.668839 2.970173 0
M  V30 43 C 3.371784 -2.558321 -1.140160 0
M  V30 44 F 3.510377 -3.807689 -0.280175 0
M  V30 45 F 4.773452 -2.782202 -1.692502 0
M  V30 46 F 3.233191 -1.308954 -2.000148 0
M  V30 END ATOM
M  V30 BEGIN BOND
M  V30 1 1 43 44
M  V30 2 1 43 45
M  V30 3 1 43 46
M  V30 4 1 36 43
M  V30 5 1 1 2
M  V30 6 1 1 3
M  V30 7 2 1 4
M  V30 8 1 2 5
M  V30 9 2 2 11
M  V30 10 1 3 6
M  V30 11 2 3 12
M  V30 12 1 4 7
M  V30 13 1 4 8
M  V30 14 1 5 9
M  V30 15 2 5 13
M  V30 16 1 6 10
M  V30 17 2 6 14
M  V30 18 2 7 9
M  V30 19 1 7 19
M  V30 20 2 8 10
M  V30 21 1 8 20
M  V30 22 1 9 21
M  V30 23 1 10 22
M  V30 24 1 11 15
M  V30 25 1 12 16
M  V30 26 1 13 17
M  V30 27 1 13 23
M  V30 28 1 14 18
M  V30 29 1 14 24
M  V30 30 2 15 17
M  V30 31 2 16 18
M  V30 32 1 17 25
M  V30 33 1 18 26
M  V30 34 1 27 28
M  V30 35 2 28 29
M  V30 36 1 29 30
M  V30 37 1 30 12
M  V30 38 1 29 31
M  V30 39 1 28 32
M  V30 40 2 32 33
M  V30 41 1 33 34
M  V30 42 2 34 31
M  V30 43 1 16 27
M  V30 44 1 31 35
M  V30 45 1 35 36
M  V30 46 2 36 37
M  V30 47 1 37 30
M  V30 48 1 15 38
M  V30 49 1 11 39
M  V30 50 1 32 40
M  V30 51 1 33 41
M  V30 52 1 34 42
M  V30 END BOND
M  V30 BEGIN SGROUP
M  V30 1 SUP 1 ATOMS=(4 43 44 45 46) XBONDS=(1 4) LABEL="CF\s3" CSTATE=(4 4 -
M  V30 -1.815931 0.251167 0)
M  V30 END SGROUP
M  V30 END CTAB
M  END
