 energy: -89.633695569121 gnorm: 0.000741733954 xtb: 6.6.1 (8d0f1dd)
          11012413463D

 46 52  0     0  0            999 V2000
    0.6288    1.6136   -1.1767 C   0  0  0  0  0  0  0  0  0  0  0  0
    1.5211    1.0794   -0.1844 C   0  0  0  0  0  0  0  0  0  0  0  0
   -0.7715    1.3545   -1.1929 C   0  0  0  0  0  0  0  0  0  0  0  0
    1.1638    2.5049   -2.1277 C   0  0  0  0  0  0  0  0  0  0  0  0
    2.9198    1.1545   -0.3991 C   0  0  0  0  0  0  0  0  0  0  0  0
   -1.6338    2.3016   -1.8215 C   0  0  0  0  0  0  0  0  0  0  0  0
    2.5649    2.5924   -2.2964 C   0  0  0  0  0  0  0  0  0  0  0  0
    0.2829    3.3153   -2.8921 C   0  0  0  0  0  0  0  0  0  0  0  0
    3.4147    1.8769   -1.5125 C   0  0  0  0  0  0  0  0  0  0  0  0
   -1.0542    3.2810   -2.6751 C   0  0  0  0  0  0  0  0  0  0  0  0
    1.0755    0.5973    1.0599 C   0  0  0  0  0  0  0  0  0  0  0  0
   -1.3661    0.1819   -0.6420 C   0  0  0  0  0  0  0  0  0  0  0  0
    3.7905    0.5645    0.5343 C   0  0  0  0  0  0  0  0  0  0  0  0
   -3.0092    2.2339   -1.6121 C   0  0  0  0  0  0  0  0  0  0  0  0
    1.9465    0.0599    1.9714 C   0  0  0  0  0  0  0  0  0  0  0  0
   -2.7468    0.2012   -0.3658 C   0  0  0  0  0  0  0  0  0  0  0  0
    3.3135   -0.0007    1.6865 C   0  0  0  0  0  0  0  0  0  0  0  0
   -3.5459    1.2321   -0.8149 C   0  0  0  0  0  0  0  0  0  0  0  0
    2.9458    3.2284   -3.0857 H   0  0  0  0  0  0  0  0  0  0  0  0
    0.7109    4.0051   -3.6086 H   0  0  0  0  0  0  0  0  0  0  0  0
    4.4824    1.8992   -1.6833 H   0  0  0  0  0  0  0  0  0  0  0  0
   -1.7182    3.9674   -3.1852 H   0  0  0  0  0  0  0  0  0  0  0  0
    4.8531    0.5778    0.3307 H   0  0  0  0  0  0  0  0  0  0  0  0
   -3.6587    2.9641   -2.0726 H   0  0  0  0  0  0  0  0  0  0  0  0
    3.9886   -0.4661    2.3908 H   0  0  0  0  0  0  0  0  0  0  0  0
   -4.6024    1.1964   -0.5954 H   0  0  0  0  0  0  0  0  0  0  0  0
   -3.3774   -0.8131    0.3479 O   0  0  0  0  0  0  0  0  0  0  0  0
   -2.5706   -1.8395    0.7962 C   0  0  0  0  0  0  0  0  0  0  0  0
   -1.2636   -1.9679    0.3756 C   0  0  0  0  0  0  0  0  0  0  0  0
   -0.6980   -0.9913   -0.4687 N   0  0  0  0  0  0  0  0  0  0  0  0
   -0.4570   -3.0384    0.8008 C   0  0  0  0  0  0  0  0  0  0  0  0
   -3.1061   -2.7661    1.6874 C   0  0  0  0  0  0  0  0  0  0  0  0
   -2.3164   -3.8137    2.1261 C   0  0  0  0  0  0  0  0  0  0  0  0
   -1.0111   -3.9609    1.6876 C   0  0  0  0  0  0  0  0  0  0  0  0
    0.8231   -3.1837    0.3292 N   0  0  0  0  0  0  0  0  0  0  0  0
    1.1821   -2.2531   -0.5444 C   0  0  0  0  0  0  0  0  0  0  0  0
    0.5662   -1.1938   -0.9823 N   0  0  0  0  0  0  0  0  0  0  0  0
    1.5764   -0.3232    2.9125 H   0  0  0  0  0  0  0  0  0  0  0  0
    0.0262    0.6691    1.3100 H   0  0  0  0  0  0  0  0  0  0  0  0
   -4.1269   -2.6472    2.0155 H   0  0  0  0  0  0  0  0  0  0  0  0
   -2.7303   -4.5326    2.8202 H   0  0  0  0  0  0  0  0  0  0  0  0
   -0.3979   -4.7838    2.0184 H   0  0  0  0  0  0  0  0  0  0  0  0
    2.5375   -2.4794   -1.1586 C   0  0  0  0  0  0  0  0  0  0  0  0
    3.5188   -2.6043   -0.2449 F   0  0  0  0  0  0  0  0  0  0  0  0
    2.5842   -3.6210   -1.8858 F   0  0  0  0  0  0  0  0  0  0  0  0
    2.9381   -1.5119   -1.9963 F   0  0  0  0  0  0  0  0  0  0  0  0
 43 44  1  0  0  0  0
 43 45  1  0  0  0  0
 43 46  1  0  0  0  0
 36 43  1  0  0  0  0
  1  2  1  0  0  0  0
  1  3  1  0  0  0  0
  1  4  2  0  0  0  0
  2  5  1  0  0  0  0
  2 11  2  0  0  0  0
  3  6  1  0  0  0  0
  3 12  2  0  0  0  0
  4  7  1  0  0  0  0
  4  8  1  0  0  0  0
  5  9  1  0  0  0  0
  5 13  2  0  0  0  0
  6 10  1  0  0  0  0
  6 14  2  0  0  0  0
  7  9  2  0  0  0  0
  7 19  1  0  0  0  0
  8 10  2  0  0  0  0
  8 20  1  0  0  0  0
  9 21  1  0  0  0  0
 10 22  1  0  0  0  0
 11 15  1  0  0  0  0
 12 16  1  0  0  0  0
 13 17  1  0  0  0  0
 13 23  1  0  0  0  0
 14 18  1  0  0  0  0
 14 24  1  0  0  0  0
 15 17  2  0  0  0  0
 16 18  2  0  0  0  0
 17 25  1  0  0  0  0
 18 26  1  0  0  0  0
 27 28  1  0  0  0  0
 28 29  2  0  0  0  0
 29 30  1  0  0  0  0
 30 12  1  0  0  0  0
 29 31  1  0  0  0  0
 28 32  1  0  0  0  0
 32 33  2  0  0  0  0
 33 34  1  0  0  0  0
 34 31  2  0  0  0  0
 16 27  1  0  0  0  0
 31 35  1  0  0  0  0
 35 36  1  0  0  0  0
 36 37  2  0  0  0  0
 37 30  1  0  0  0  0
 15 38  1  0  0  0  0
 11 39  1  0  0  0  0
 32 40  1  0  0  0  0
 33 41  1  0  0  0  0
 34 42  1  0  0  0  0
M  CHG  1   1  -1
M  END
