 energy: -89.368419717881 gnorm: 0.000963843752 xtb: 6.6.1 (8d0f1dd)
          11012413463D

 46 52  0     0  0            999 V2000
    0.6503    1.6187   -1.1527 C   0  0  0  0  0  0  0  0  0  0  0  0
    1.5532    1.1124   -0.1589 C   0  0  0  0  0  0  0  0  0  0  0  0
   -0.7560    1.3650   -1.1484 C   0  0  0  0  0  0  0  0  0  0  0  0
    1.1663    2.4706   -2.1471 C   0  0  0  0  0  0  0  0  0  0  0  0
    2.9466    1.1673   -0.4061 C   0  0  0  0  0  0  0  0  0  0  0  0
   -1.6164    2.2916   -1.7954 C   0  0  0  0  0  0  0  0  0  0  0  0
    2.5689    2.5391   -2.3506 C   0  0  0  0  0  0  0  0  0  0  0  0
    0.2815    3.2667   -2.9168 C   0  0  0  0  0  0  0  0  0  0  0  0
    3.4234    1.8449   -1.5590 C   0  0  0  0  0  0  0  0  0  0  0  0
   -1.0539    3.2545   -2.6722 C   0  0  0  0  0  0  0  0  0  0  0  0
    1.1268    0.6570    1.1028 C   0  0  0  0  0  0  0  0  0  0  0  0
   -1.3603    0.2147   -0.5684 C   0  0  0  0  0  0  0  0  0  0  0  0
    3.8346    0.6019    0.5245 C   0  0  0  0  0  0  0  0  0  0  0  0
   -3.0032    2.2185   -1.5873 C   0  0  0  0  0  0  0  0  0  0  0  0
    2.0157    0.1391    2.0092 C   0  0  0  0  0  0  0  0  0  0  0  0
   -2.7403    0.2095   -0.3159 C   0  0  0  0  0  0  0  0  0  0  0  0
    3.3769    0.0680    1.7006 C   0  0  0  0  0  0  0  0  0  0  0  0
   -3.5490    1.2385   -0.7945 C   0  0  0  0  0  0  0  0  0  0  0  0
    2.9362    3.1422   -3.1683 H   0  0  0  0  0  0  0  0  0  0  0  0
    0.7013    3.9315   -3.6576 H   0  0  0  0  0  0  0  0  0  0  0  0
    4.4860    1.8481   -1.7509 H   0  0  0  0  0  0  0  0  0  0  0  0
   -1.7200    3.9389   -3.1763 H   0  0  0  0  0  0  0  0  0  0  0  0
    4.8917    0.6103    0.3029 H   0  0  0  0  0  0  0  0  0  0  0  0
   -3.6416    2.9527   -2.0539 H   0  0  0  0  0  0  0  0  0  0  0  0
    4.0632   -0.3760    2.4050 H   0  0  0  0  0  0  0  0  0  0  0  0
   -4.6052    1.1965   -0.5844 H   0  0  0  0  0  0  0  0  0  0  0  0
   -3.3675   -0.7946    0.3718 O   0  0  0  0  0  0  0  0  0  0  0  0
   -2.5993   -1.8359    0.8100 C   0  0  0  0  0  0  0  0  0  0  0  0
   -1.2703   -1.9520    0.4159 C   0  0  0  0  0  0  0  0  0  0  0  0
   -0.6734   -0.9625   -0.3502 N   0  0  0  0  0  0  0  0  0  0  0  0
   -0.4882   -3.0655    0.7978 C   0  0  0  0  0  0  0  0  0  0  0  0
   -3.1540   -2.8070    1.6309 C   0  0  0  0  0  0  0  0  0  0  0  0
   -2.3776   -3.8845    2.0358 C   0  0  0  0  0  0  0  0  0  0  0  0
   -1.0655   -4.0269    1.6261 C   0  0  0  0  0  0  0  0  0  0  0  0
    0.7889   -3.1908    0.3324 N   0  0  0  0  0  0  0  0  0  0  0  0
    1.1636   -2.2579   -0.5159 C   0  0  0  0  0  0  0  0  0  0  0  0
    0.5365   -1.1657   -0.8866 N   0  0  0  0  0  0  0  0  0  0  0  0
    1.6648   -0.2120    2.9686 H   0  0  0  0  0  0  0  0  0  0  0  0
    0.0841    0.7461    1.3758 H   0  0  0  0  0  0  0  0  0  0  0  0
   -4.1826   -2.7079    1.9356 H   0  0  0  0  0  0  0  0  0  0  0  0
   -2.8176   -4.6323    2.6773 H   0  0  0  0  0  0  0  0  0  0  0  0
   -0.4689   -4.8743    1.9185 H   0  0  0  0  0  0  0  0  0  0  0  0
    2.5196   -2.4534   -1.1521 C   0  0  0  0  0  0  0  0  0  0  0  0
    3.4994   -2.5227   -0.2404 F   0  0  0  0  0  0  0  0  0  0  0  0
    2.5750   -3.5931   -1.8598 F   0  0  0  0  0  0  0  0  0  0  0  0
    2.8494   -1.4689   -1.9953 F   0  0  0  0  0  0  0  0  0  0  0  0
 43 44  1  0  0  0  0
 43 45  1  0  0  0  0
 43 46  1  0  0  0  0
 36 43  1  0  0  0  0
  1  2  1  0  0  0  0
  1  3  1  0  0  0  0
  1  4  2  0  0  0  0
  2  5  1  0  0  0  0
  2 11  2  0  0  0  0
  3  6  1  0  0  0  0
  3 12  2  0  0  0  0
  4  7  1  0  0  0  0
  4  8  1  0  0  0  0
  5  9  1  0  0  0  0
  5 13  2  0  0  0  0
  6 10  1  0  0  0  0
  6 14  2  0  0  0  0
  7  9  2  0  0  0  0
  7 19  1  0  0  0  0
  8 10  2  0  0  0  0
  8 20  1  0  0  0  0
  9 21  1  0  0  0  0
 10 22  1  0  0  0  0
 11 15  1  0  0  0  0
 12 16  1  0  0  0  0
 13 17  1  0  0  0  0
 13 23  1  0  0  0  0
 14 18  1  0  0  0  0
 14 24  1  0  0  0  0
 15 17  2  0  0  0  0
 16 18  2  0  0  0  0
 17 25  1  0  0  0  0
 18 26  1  0  0  0  0
 27 28  1  0  0  0  0
 28 29  2  0  0  0  0
 29 30  1  0  0  0  0
 30 12  1  0  0  0  0
 29 31  1  0  0  0  0
 28 32  1  0  0  0  0
 32 33  2  0  0  0  0
 33 34  1  0  0  0  0
 34 31  2  0  0  0  0
 16 27  1  0  0  0  0
 31 35  1  0  0  0  0
 35 36  1  0  0  0  0
 36 37  2  0  0  0  0
 37 30  1  0  0  0  0
 15 38  1  0  0  0  0
 11 39  1  0  0  0  0
 32 40  1  0  0  0  0
 33 41  1  0  0  0  0
 34 42  1  0  0  0  0
M  END
