 xtb: 6.7.1 (edcfbbe)
          12022412363D

 96100  0     0  0            999 V2000
   -0.0406    3.5828   -3.8347 C   0  0  0  0  0  0  0  0  0  0  0  0
    1.8637   -2.6255   -0.5525 C   0  0  0  0  0  0  0  0  0  0  0  0
   -4.3201    1.1327   -2.7836 C   0  0  0  0  0  0  0  0  0  0  0  0
   -3.3323    0.3853   -2.1871 C   0  0  0  0  0  0  0  0  0  0  0  0
   -2.0057    0.8994   -2.1051 C   0  0  0  0  0  0  0  0  0  0  0  0
   -1.6804    2.0523   -2.8627 C   0  0  0  0  0  0  0  0  0  0  0  0
   -2.7317    2.8176   -3.3883 C   0  0  0  0  0  0  0  0  0  0  0  0
   -4.0430    2.3941   -3.3265 C   0  0  0  0  0  0  0  0  0  0  0  0
   -0.9867    0.2795   -1.3355 C   0  0  0  0  0  0  0  0  0  0  0  0
    0.3450    0.5379   -1.7005 C   0  0  0  0  0  0  0  0  0  0  0  0
    0.6626    1.6401   -2.5379 C   0  0  0  0  0  0  0  0  0  0  0  0
   -0.3630    2.4058   -3.0440 N   0  0  0  0  0  0  0  0  0  0  0  0
   -1.1888   -0.5476   -0.1925 C   0  0  0  0  0  0  0  0  0  0  0  0
   -0.1722   -1.4701    0.1547 C   0  0  0  0  0  0  0  0  0  0  0  0
    1.0263   -1.4387   -0.5195 N   0  0  0  0  0  0  0  0  0  0  0  0
    1.3815   -0.3112   -1.2236 C   0  0  0  0  0  0  0  0  0  0  0  0
    2.7003    0.0131   -1.5004 C   0  0  0  0  0  0  0  0  0  0  0  0
    3.0256    1.1442   -2.2425 C   0  0  0  0  0  0  0  0  0  0  0  0
    2.0076    1.9322   -2.7603 C   0  0  0  0  0  0  0  0  0  0  0  0
   -2.3166   -0.4411    0.6660 C   0  0  0  0  0  0  0  0  0  0  0  0
   -2.4973   -1.3564    1.6825 C   0  0  0  0  0  0  0  0  0  0  0  0
   -1.5656   -2.3678    1.9264 C   0  0  0  0  0  0  0  0  0  0  0  0
   -0.4001   -2.3867    1.1821 C   0  0  0  0  0  0  0  0  0  0  0  0
   -3.1197    0.6286    0.4655 O   0  0  0  0  0  0  0  0  0  0  0  0
   -3.5065   -0.8696   -1.7172 O   0  0  0  0  0  0  0  0  0  0  0  0
   -5.3254    0.7523   -2.8289 H   0  0  0  0  0  0  0  0  0  0  0  0
   -2.5301    3.7660   -3.8459 H   0  0  0  0  0  0  0  0  0  0  0  0
   -3.3662   -1.2794    2.3099 H   0  0  0  0  0  0  0  0  0  0  0  0
    0.3630   -3.1003    1.4339 H   0  0  0  0  0  0  0  0  0  0  0  0
    3.4950   -0.5862   -1.0919 H   0  0  0  0  0  0  0  0  0  0  0  0
    2.2868    2.7948   -3.3320 H   0  0  0  0  0  0  0  0  0  0  0  0
    1.1465   -3.7897   -1.2460 C   0  0  0  0  0  0  0  0  0  0  0  0
    2.0255   -5.0333   -1.2602 C   0  0  0  0  0  0  0  0  0  0  0  0
    0.1032    4.8338   -2.9650 C   0  0  0  0  0  0  0  0  0  0  0  0
    0.4387    6.0538   -3.8123 C   0  0  0  0  0  0  0  0  0  0  0  0
   -4.1934    0.8602    1.3493 C   0  0  0  0  0  0  0  0  0  0  0  0
   -4.7830   -1.4617   -1.7986 C   0  0  0  0  0  0  0  0  0  0  0  0
   -5.1941    3.2268   -3.8612 C   0  0  0  0  0  0  0  0  0  0  0  0
   -5.8909    2.4577   -4.9934 C   0  0  0  0  0  0  0  0  0  0  0  0
   -6.1838    3.4801   -2.7141 C   0  0  0  0  0  0  0  0  0  0  0  0
   -4.7466    4.5831   -4.4129 C   0  0  0  0  0  0  0  0  0  0  0  0
   -1.7668   -3.4084    3.0145 C   0  0  0  0  0  0  0  0  0  0  0  0
   -1.6787   -4.8064    2.3839 C   0  0  0  0  0  0  0  0  0  0  0  0
   -3.1252   -3.2861    3.7095 C   0  0  0  0  0  0  0  0  0  0  0  0
   -0.6679   -3.2440    4.0745 C   0  0  0  0  0  0  0  0  0  0  0  0
    4.4922    1.4843   -2.4505 C   0  0  0  0  0  0  0  0  0  0  0  0
    4.7027    2.7362   -3.3066 C   0  0  0  0  0  0  0  0  0  0  0  0
    5.1863    0.3077   -3.1522 C   0  0  0  0  0  0  0  0  0  0  0  0
    5.1377    1.7306   -1.0787 C   0  0  0  0  0  0  0  0  0  0  0  0
    6.2276    0.5550   -3.3408 H   0  0  0  0  0  0  0  0  0  0  0  0
    4.7055    0.0979   -4.1052 H   0  0  0  0  0  0  0  0  0  0  0  0
    5.1612   -0.5948   -2.5486 H   0  0  0  0  0  0  0  0  0  0  0  0
    5.7690    2.9160   -3.4180 H   0  0  0  0  0  0  0  0  0  0  0  0
    4.2682    3.6158   -2.8370 H   0  0  0  0  0  0  0  0  0  0  0  0
    4.2840    2.6094   -4.3025 H   0  0  0  0  0  0  0  0  0  0  0  0
    6.1832    1.9983   -1.2065 H   0  0  0  0  0  0  0  0  0  0  0  0
    5.0900    0.8483   -0.4469 H   0  0  0  0  0  0  0  0  0  0  0  0
    4.6342    2.5466   -0.5650 H   0  0  0  0  0  0  0  0  0  0  0  0
   -0.8204   -3.9605    4.8774 H   0  0  0  0  0  0  0  0  0  0  0  0
   -0.6966   -2.2422    4.4973 H   0  0  0  0  0  0  0  0  0  0  0  0
    0.3209   -3.4103    3.6567 H   0  0  0  0  0  0  0  0  0  0  0  0
   -3.2269   -4.0845    4.4404 H   0  0  0  0  0  0  0  0  0  0  0  0
   -3.9418   -3.3811    2.9974 H   0  0  0  0  0  0  0  0  0  0  0  0
   -3.2150   -2.3412    4.2403 H   0  0  0  0  0  0  0  0  0  0  0  0
   -5.6191    5.1366   -4.7506 H   0  0  0  0  0  0  0  0  0  0  0  0
   -4.0826    4.4635   -5.2659 H   0  0  0  0  0  0  0  0  0  0  0  0
   -4.2529    5.1779   -3.6478 H   0  0  0  0  0  0  0  0  0  0  0  0
   -7.0080    4.0946   -3.0667 H   0  0  0  0  0  0  0  0  0  0  0  0
   -5.6892    4.0031   -1.8984 H   0  0  0  0  0  0  0  0  0  0  0  0
   -6.5959    2.5526   -2.3274 H   0  0  0  0  0  0  0  0  0  0  0  0
   -6.6972    3.0597   -5.4042 H   0  0  0  0  0  0  0  0  0  0  0  0
   -6.3158    1.5214   -4.6440 H   0  0  0  0  0  0  0  0  0  0  0  0
   -5.1854    2.2375   -5.7916 H   0  0  0  0  0  0  0  0  0  0  0  0
   -1.8501   -5.5648    3.1433 H   0  0  0  0  0  0  0  0  0  0  0  0
   -0.7035   -4.9887    1.9417 H   0  0  0  0  0  0  0  0  0  0  0  0
   -2.4339   -4.9201    1.6091 H   0  0  0  0  0  0  0  0  0  0  0  0
    2.1688   -2.9078    0.4590 H   0  0  0  0  0  0  0  0  0  0  0  0
    2.7640   -2.4040   -1.1214 H   0  0  0  0  0  0  0  0  0  0  0  0
    0.9089   -3.4934   -2.2700 H   0  0  0  0  0  0  0  0  0  0  0  0
    0.2062   -4.0090   -0.7389 H   0  0  0  0  0  0  0  0  0  0  0  0
    2.9569   -4.8427   -1.7879 H   0  0  0  0  0  0  0  0  0  0  0  0
    1.5121   -5.8501   -1.7592 H   0  0  0  0  0  0  0  0  0  0  0  0
    2.2640   -5.3485   -0.2470 H   0  0  0  0  0  0  0  0  0  0  0  0
   -4.6576    1.7829    1.0049 H   0  0  0  0  0  0  0  0  0  0  0  0
   -3.8448    0.9925    2.3778 H   0  0  0  0  0  0  0  0  0  0  0  0
   -4.9279    0.0501    1.3149 H   0  0  0  0  0  0  0  0  0  0  0  0
   -4.6742   -2.4491   -1.3529 H   0  0  0  0  0  0  0  0  0  0  0  0
   -5.1096   -1.5685   -2.8370 H   0  0  0  0  0  0  0  0  0  0  0  0
   -5.5287   -0.8905   -1.2378 H   0  0  0  0  0  0  0  0  0  0  0  0
   -0.8135    3.7313   -4.5878 H   0  0  0  0  0  0  0  0  0  0  0  0
    0.8808    3.4001   -4.3872 H   0  0  0  0  0  0  0  0  0  0  0  0
    0.8889    4.6684   -2.2251 H   0  0  0  0  0  0  0  0  0  0  0  0
   -0.8294    5.0038   -2.4231 H   0  0  0  0  0  0  0  0  0  0  0  0
    1.3751    5.9074   -4.3456 H   0  0  0  0  0  0  0  0  0  0  0  0
    0.5387    6.9334   -3.1831 H   0  0  0  0  0  0  0  0  0  0  0  0
   -0.3445    6.2438   -4.5424 H   0  0  0  0  0  0  0  0  0  0  0  0
  3  4  4  0  0  0  0
  4  5  4  0  0  0  0
  5  6  4  0  0  0  0
  6  7  4  0  0  0  0
  3  8  4  0  0  0  0
  7  8  4  0  0  0  0
  5  9  4  0  0  0  0
  9 10  4  0  0  0  0
 10 11  4  0  0  0  0
  1 12  1  0  0  0  0
  6 12  1  0  0  0  0
 11 12  1  0  0  0  0
  9 13  4  0  0  0  0
 13 14  4  0  0  0  0
  2 15  1  0  0  0  0
 14 15  1  0  0  0  0
 10 16  4  0  0  0  0
 15 16  1  0  0  0  0
 16 17  4  0  0  0  0
 17 18  4  0  0  0  0
 11 19  4  0  0  0  0
 18 19  4  0  0  0  0
 13 20  4  0  0  0  0
 20 21  4  0  0  0  0
 21 22  4  0  0  0  0
 14 23  4  0  0  0  0
 22 23  4  0  0  0  0
 20 24  1  0  0  0  0
  4 25  1  0  0  0  0
  3 26  1  0  0  0  0
  7 27  1  0  0  0  0
 21 28  1  0  0  0  0
 23 29  1  0  0  0  0
 17 30  1  0  0  0  0
 19 31  1  0  0  0  0
  2 32  1  0  0  0  0
 32 33  1  0  0  0  0
  1 34  1  0  0  0  0
 34 35  1  0  0  0  0
 24 36  1  0  0  0  0
 25 37  1  0  0  0  0
  8 38  1  0  0  0  0
 38 39  1  0  0  0  0
 38 40  1  0  0  0  0
 38 41  1  0  0  0  0
 22 42  1  0  0  0  0
 42 43  1  0  0  0  0
 42 44  1  0  0  0  0
 42 45  1  0  0  0  0
 18 46  1  0  0  0  0
 46 47  1  0  0  0  0
 46 48  1  0  0  0  0
 46 49  1  0  0  0  0
 48 50  1  0  0  0  0
 48 51  1  0  0  0  0
 48 52  1  0  0  0  0
 47 53  1  0  0  0  0
 47 54  1  0  0  0  0
 47 55  1  0  0  0  0
 49 56  1  0  0  0  0
 49 57  1  0  0  0  0
 49 58  1  0  0  0  0
 45 59  1  0  0  0  0
 45 60  1  0  0  0  0
 45 61  1  0  0  0  0
 44 62  1  0  0  0  0
 44 63  1  0  0  0  0
 44 64  1  0  0  0  0
 41 65  1  0  0  0  0
 41 66  1  0  0  0  0
 41 67  1  0  0  0  0
 40 68  1  0  0  0  0
 40 69  1  0  0  0  0
 40 70  1  0  0  0  0
 39 71  1  0  0  0  0
 39 72  1  0  0  0  0
 39 73  1  0  0  0  0
 43 74  1  0  0  0  0
 43 75  1  0  0  0  0
 43 76  1  0  0  0  0
  2 77  1  0  0  0  0
  2 78  1  0  0  0  0
 32 79  1  0  0  0  0
 32 80  1  0  0  0  0
 33 81  1  0  0  0  0
 33 82  1  0  0  0  0
 33 83  1  0  0  0  0
 36 84  1  0  0  0  0
 36 85  1  0  0  0  0
 36 86  1  0  0  0  0
 37 87  1  0  0  0  0
 37 88  1  0  0  0  0
 37 89  1  0  0  0  0
  1 90  1  0  0  0  0
  1 91  1  0  0  0  0
 34 92  1  0  0  0  0
 34 93  1  0  0  0  0
 35 94  1  0  0  0  0
 35 95  1  0  0  0  0
 35 96  1  0  0  0  0
M  CHG  1   1   1
M  END
