 energy: -33.577897086774 gnorm: 0.000462114811 xtb: 6.7.1 (edcfbbe)
          12022412373D

192200  0     0  0            999 V2000
    0.2016    3.3523   -4.0368 C   0  0  0  0  0  0  0  0  0  0  0  0
    2.1259   -2.2854    0.4175 C   0  0  0  0  0  0  0  0  0  0  0  0
   -4.2020    1.2079   -2.7438 C   0  0  0  0  0  0  0  0  0  0  0  0
   -3.2344    0.3712   -2.1962 C   0  0  0  0  0  0  0  0  0  0  0  0
   -1.8886    0.8534   -2.1229 C   0  0  0  0  0  0  0  0  0  0  0  0
   -1.5305    1.9920   -2.8889 C   0  0  0  0  0  0  0  0  0  0  0  0
   -2.5519    2.7909   -3.4091 C   0  0  0  0  0  0  0  0  0  0  0  0
   -3.8865    2.4387   -3.3024 C   0  0  0  0  0  0  0  0  0  0  0  0
   -0.8892    0.2362   -1.2949 C   0  0  0  0  0  0  0  0  0  0  0  0
    0.4727    0.4311   -1.6402 C   0  0  0  0  0  0  0  0  0  0  0  0
    0.8307    1.4496   -2.5596 C   0  0  0  0  0  0  0  0  0  0  0  0
   -0.1716    2.2584   -3.1185 N   0  0  0  0  0  0  0  0  0  0  0  0
   -1.1901   -0.5643   -0.1383 C   0  0  0  0  0  0  0  0  0  0  0  0
   -0.2238   -1.5122    0.2899 C   0  0  0  0  0  0  0  0  0  0  0  0
    1.1005   -1.3963   -0.1610 N   0  0  0  0  0  0  0  0  0  0  0  0
    1.4734   -0.4020   -1.0782 C   0  0  0  0  0  0  0  0  0  0  0  0
    2.7922   -0.2225   -1.4913 C   0  0  0  0  0  0  0  0  0  0  0  0
    3.1654    0.7885   -2.3620 C   0  0  0  0  0  0  0  0  0  0  0  0
    2.1786    1.6197   -2.8679 C   0  0  0  0  0  0  0  0  0  0  0  0
   -2.3964   -0.4409    0.6291 C   0  0  0  0  0  0  0  0  0  0  0  0
   -2.7322   -1.4771    1.4955 C   0  0  0  0  0  0  0  0  0  0  0  0
   -1.8953   -2.5629    1.7132 C   0  0  0  0  0  0  0  0  0  0  0  0
   -0.6235   -2.5216    1.1693 C   0  0  0  0  0  0  0  0  0  0  0  0
   -3.2557    0.6733    0.6099 O   0  0  0  0  0  0  0  0  0  0  0  0
   -3.5073   -0.9312   -1.7731 O   0  0  0  0  0  0  0  0  0  0  0  0
   -5.2264    0.8894   -2.7440 H   0  0  0  0  0  0  0  0  0  0  0  0
   -2.2966    3.7233   -3.8722 H   0  0  0  0  0  0  0  0  0  0  0  0
   -3.6516   -1.3840    2.0418 H   0  0  0  0  0  0  0  0  0  0  0  0
    0.0652   -3.3081    1.4061 H   0  0  0  0  0  0  0  0  0  0  0  0
    3.5498   -0.9009   -1.1507 H   0  0  0  0  0  0  0  0  0  0  0  0
    2.4649    2.4169   -3.5236 H   0  0  0  0  0  0  0  0  0  0  0  0
    2.3029   -3.5642   -0.3852 C   0  0  0  0  0  0  0  0  0  0  0  0
    3.3414   -4.4924    0.2220 C   0  0  0  0  0  0  0  0  0  0  0  0
    0.5021    4.6425   -3.2892 C   0  0  0  0  0  0  0  0  0  0  0  0
    0.8855    5.7836   -4.2161 C   0  0  0  0  0  0  0  0  0  0  0  0
   -2.5920    1.9190    0.5657 C   0  0  0  0  0  0  0  0  0  0  0  0
   -4.8656   -1.1977   -1.5153 C   0  0  0  0  0  0  0  0  0  0  0  0
   -5.0187    3.3475   -3.8038 C   0  0  0  0  0  0  0  0  0  0  0  0
   -5.7774    2.6386   -4.9398 C   0  0  0  0  0  0  0  0  0  0  0  0
   -5.9815    3.6411   -2.6373 C   0  0  0  0  0  0  0  0  0  0  0  0
   -4.4822    4.6900   -4.3372 C   0  0  0  0  0  0  0  0  0  0  0  0
   -2.3462   -3.7325    2.5999 C   0  0  0  0  0  0  0  0  0  0  0  0
   -1.5682   -5.0207    2.2609 C   0  0  0  0  0  0  0  0  0  0  0  0
   -3.8468   -4.0156    2.3891 C   0  0  0  0  0  0  0  0  0  0  0  0
   -2.0943   -3.3698    4.0659 C   0  0  0  0  0  0  0  0  0  0  0  0
    4.6384    0.9271   -2.7803 C   0  0  0  0  0  0  0  0  0  0  0  0
    4.8741    2.1870   -3.6367 C   0  0  0  0  0  0  0  0  0  0  0  0
    5.0431   -0.3090   -3.6031 C   0  0  0  0  0  0  0  0  0  0  0  0
    5.5286    1.0271   -1.5280 C   0  0  0  0  0  0  0  0  0  0  0  0
    6.0810   -0.2390   -3.9284 H   0  0  0  0  0  0  0  0  0  0  0  0
    4.4162   -0.4032   -4.4895 H   0  0  0  0  0  0  0  0  0  0  0  0
    4.9359   -1.2229   -3.0197 H   0  0  0  0  0  0  0  0  0  0  0  0
    5.9283    2.2869   -3.8949 H   0  0  0  0  0  0  0  0  0  0  0  0
    4.5792    3.0874   -3.0980 H   0  0  0  0  0  0  0  0  0  0  0  0
    4.3131    2.1406   -4.5698 H   0  0  0  0  0  0  0  0  0  0  0  0
    6.5716    1.1834   -1.8029 H   0  0  0  0  0  0  0  0  0  0  0  0
    5.4794    0.1165   -0.9331 H   0  0  0  0  0  0  0  0  0  0  0  0
    5.2173    1.8618   -0.9005 H   0  0  0  0  0  0  0  0  0  0  0  0
   -2.4050   -4.1745    4.7308 H   0  0  0  0  0  0  0  0  0  0  0  0
   -2.6416   -2.4708    4.3416 H   0  0  0  0  0  0  0  0  0  0  0  0
   -1.0357   -3.1785    4.2308 H   0  0  0  0  0  0  0  0  0  0  0  0
   -4.1590   -4.8953    2.9516 H   0  0  0  0  0  0  0  0  0  0  0  0
   -4.0606   -4.1955    1.3358 H   0  0  0  0  0  0  0  0  0  0  0  0
   -4.4618   -3.1816    2.7228 H   0  0  0  0  0  0  0  0  0  0  0  0
   -5.3011    5.3305   -4.6643 H   0  0  0  0  0  0  0  0  0  0  0  0
   -3.8230    4.5389   -5.1918 H   0  0  0  0  0  0  0  0  0  0  0  0
   -3.9318    5.2269   -3.5648 H   0  0  0  0  0  0  0  0  0  0  0  0
   -6.7867    4.3043   -2.9529 H   0  0  0  0  0  0  0  0  0  0  0  0
   -5.4525    4.1201   -1.8135 H   0  0  0  0  0  0  0  0  0  0  0  0
   -6.4340    2.7268   -2.2557 H   0  0  0  0  0  0  0  0  0  0  0  0
   -6.5763    3.2699   -5.3285 H   0  0  0  0  0  0  0  0  0  0  0  0
   -6.2262    1.7074   -4.5964 H   0  0  0  0  0  0  0  0  0  0  0  0
   -5.1035    2.4015   -5.7628 H   0  0  0  0  0  0  0  0  0  0  0  0
   -1.9661   -5.8701    2.8159 H   0  0  0  0  0  0  0  0  0  0  0  0
   -0.5141   -4.9322    2.5212 H   0  0  0  0  0  0  0  0  0  0  0  0
   -1.6421   -5.2502    1.1981 H   0  0  0  0  0  0  0  0  0  0  0  0
    1.8593   -2.5074    1.4529 H   0  0  0  0  0  0  0  0  0  0  0  0
    3.0746   -1.7539    0.5023 H   0  0  0  0  0  0  0  0  0  0  0  0
    2.5751   -3.3054   -1.4168 H   0  0  0  0  0  0  0  0  0  0  0  0
    1.3351   -4.0747   -0.4707 H   0  0  0  0  0  0  0  0  0  0  0  0
    4.3173   -4.0061    0.2827 H   0  0  0  0  0  0  0  0  0  0  0  0
    3.4653   -5.4080   -0.3609 H   0  0  0  0  0  0  0  0  0  0  0  0
    3.0641   -4.7836    1.2372 H   0  0  0  0  0  0  0  0  0  0  0  0
   -3.2120    2.6625    1.0629 H   0  0  0  0  0  0  0  0  0  0  0  0
   -2.4431    2.2408   -0.4619 H   0  0  0  0  0  0  0  0  0  0  0  0
   -1.6303    1.8409    1.0734 H   0  0  0  0  0  0  0  0  0  0  0  0
   -4.9412   -2.1692   -1.0259 H   0  0  0  0  0  0  0  0  0  0  0  0
   -5.4274   -1.2265   -2.4493 H   0  0  0  0  0  0  0  0  0  0  0  0
   -5.2659   -0.4343   -0.8465 H   0  0  0  0  0  0  0  0  0  0  0  0
   -0.5953    3.5031   -4.7692 H   0  0  0  0  0  0  0  0  0  0  0  0
    1.0543    3.0437   -4.6463 H   0  0  0  0  0  0  0  0  0  0  0  0
    1.3010    4.4570   -2.5594 H   0  0  0  0  0  0  0  0  0  0  0  0
   -0.3715    4.9175   -2.6838 H   0  0  0  0  0  0  0  0  0  0  0  0
    1.7737    5.5354   -4.8006 H   0  0  0  0  0  0  0  0  0  0  0  0
    1.0992    6.7042   -3.6679 H   0  0  0  0  0  0  0  0  0  0  0  0
    0.0843    6.0018   -4.9252 H   0  0  0  0  0  0  0  0  0  0  0  0
   -0.6430    3.8967    2.5673 C   0  0  0  0  0  0  0  0  0  0  0  0
    2.0074   -2.3238    5.6353 C   0  0  0  0  0  0  0  0  0  0  0  0
   -4.7883    1.3475    3.9461 C   0  0  0  0  0  0  0  0  0  0  0  0
   -3.7413    0.4997    4.2925 C   0  0  0  0  0  0  0  0  0  0  0  0
   -2.4126    1.0295    4.2977 C   0  0  0  0  0  0  0  0  0  0  0  0
   -2.1826    2.2981    3.7057 C   0  0  0  0  0  0  0  0  0  0  0  0
   -3.2822    3.1191    3.4415 C   0  0  0  0  0  0  0  0  0  0  0  0
   -4.5833    2.6633    3.5577 C   0  0  0  0  0  0  0  0  0  0  0  0
   -1.2884    0.3049    4.8286 C   0  0  0  0  0  0  0  0  0  0  0  0
   -0.0062    0.5879    4.2936 C   0  0  0  0  0  0  0  0  0  0  0  0
    0.1922    1.7565    3.5148 C   0  0  0  0  0  0  0  0  0  0  0  0
   -0.8791    2.6391    3.3076 N   0  0  0  0  0  0  0  0  0  0  0  0
   -1.3820   -0.6600    5.8898 C   0  0  0  0  0  0  0  0  0  0  0  0
   -0.3390   -1.6100    6.0419 C   0  0  0  0  0  0  0  0  0  0  0  0
    0.8812   -1.4032    5.3791 N   0  0  0  0  0  0  0  0  0  0  0  0
    1.0799   -0.2845    4.5551 C   0  0  0  0  0  0  0  0  0  0  0  0
    2.3175    0.0141    3.9890 C   0  0  0  0  0  0  0  0  0  0  0  0
    2.5352    1.1611    3.2433 C   0  0  0  0  0  0  0  0  0  0  0  0
    1.4691    2.0174    3.0243 C   0  0  0  0  0  0  0  0  0  0  0  0
   -2.4553   -0.6798    6.8390 C   0  0  0  0  0  0  0  0  0  0  0  0
   -2.6184   -1.8098    7.6359 C   0  0  0  0  0  0  0  0  0  0  0  0
   -1.7006   -2.8500    7.6392 C   0  0  0  0  0  0  0  0  0  0  0  0
   -0.5558   -2.7115    6.8749 C   0  0  0  0  0  0  0  0  0  0  0  0
   -3.3297    0.4065    7.0595 O   0  0  0  0  0  0  0  0  0  0  0  0
   -3.9284   -0.8586    4.5532 O   0  0  0  0  0  0  0  0  0  0  0  0
   -5.7897    0.9632    3.9482 H   0  0  0  0  0  0  0  0  0  0  0  0
   -3.1133    4.1304    3.1287 H   0  0  0  0  0  0  0  0  0  0  0  0
   -3.4691   -1.8296    8.2899 H   0  0  0  0  0  0  0  0  0  0  0  0
    0.1687   -3.5022    6.9005 H   0  0  0  0  0  0  0  0  0  0  0  0
    3.1420   -0.6552    4.1374 H   0  0  0  0  0  0  0  0  0  0  0  0
    1.6400    2.9179    2.4701 H   0  0  0  0  0  0  0  0  0  0  0  0
    2.0917   -3.4243    4.5886 C   0  0  0  0  0  0  0  0  0  0  0  0
    3.2846   -4.3427    4.7895 C   0  0  0  0  0  0  0  0  0  0  0  0
   -0.1456    5.0084    3.4773 C   0  0  0  0  0  0  0  0  0  0  0  0
    0.1245    6.3019    2.7275 C   0  0  0  0  0  0  0  0  0  0  0  0
   -2.6722    1.6261    7.3430 C   0  0  0  0  0  0  0  0  0  0  0  0
   -5.2513   -1.2257    4.8672 C   0  0  0  0  0  0  0  0  0  0  0  0
   -5.7888    3.5257    3.1555 C   0  0  0  0  0  0  0  0  0  0  0  0
   -6.4490    2.9102    1.9075 C   0  0  0  0  0  0  0  0  0  0  0  0
   -6.8003    3.5663    4.3157 C   0  0  0  0  0  0  0  0  0  0  0  0
   -5.3735    4.9724    2.8246 C   0  0  0  0  0  0  0  0  0  0  0  0
   -1.8899   -4.1089    8.4983 C   0  0  0  0  0  0  0  0  0  0  0  0
   -1.8926   -5.3513    7.5885 C   0  0  0  0  0  0  0  0  0  0  0  0
   -3.2210   -4.0747    9.2736 C   0  0  0  0  0  0  0  0  0  0  0  0
   -0.7366   -4.2111    9.5129 C   0  0  0  0  0  0  0  0  0  0  0  0
    3.9501    1.4740    2.7319 C   0  0  0  0  0  0  0  0  0  0  0  0
    3.9894    2.7784    1.9110 C   0  0  0  0  0  0  0  0  0  0  0  0
    4.4327    0.3279    1.8297 C   0  0  0  0  0  0  0  0  0  0  0  0
    4.9000    1.6225    3.9341 C   0  0  0  0  0  0  0  0  0  0  0  0
    5.4481    0.5097    1.4789 H   0  0  0  0  0  0  0  0  0  0  0  0
    3.7828    0.2428    0.9612 H   0  0  0  0  0  0  0  0  0  0  0  0
    4.4281   -0.6265    2.3543 H   0  0  0  0  0  0  0  0  0  0  0  0
    4.9976    2.9747    1.5467 H   0  0  0  0  0  0  0  0  0  0  0  0
    3.6871    3.6335    2.5151 H   0  0  0  0  0  0  0  0  0  0  0  0
    3.3322    2.7152    1.0436 H   0  0  0  0  0  0  0  0  0  0  0  0
    5.9103    1.8655    3.6054 H   0  0  0  0  0  0  0  0  0  0  0  0
    4.9505    0.7017    4.5140 H   0  0  0  0  0  0  0  0  0  0  0  0
    4.5596    2.4174    4.5972 H   0  0  0  0  0  0  0  0  0  0  0  0
   -0.8585   -5.0828   10.1554 H   0  0  0  0  0  0  0  0  0  0  0  0
   -0.7034   -3.3259   10.1477 H   0  0  0  0  0  0  0  0  0  0  0  0
    0.2263   -4.2993    9.0114 H   0  0  0  0  0  0  0  0  0  0  0  0
   -3.3510   -4.9848    9.8589 H   0  0  0  0  0  0  0  0  0  0  0  0
   -4.0685   -3.9959    8.5930 H   0  0  0  0  0  0  0  0  0  0  0  0
   -3.2519   -3.2327    9.9646 H   0  0  0  0  0  0  0  0  0  0  0  0
   -6.2455    5.5773    2.5764 H   0  0  0  0  0  0  0  0  0  0  0  0
   -4.7008    5.0032    1.9677 H   0  0  0  0  0  0  0  0  0  0  0  0
   -4.8765    5.4413    3.6737 H   0  0  0  0  0  0  0  0  0  0  0  0
   -7.6544    4.1956    4.0662 H   0  0  0  0  0  0  0  0  0  0  0  0
   -6.3362    3.9685    5.2159 H   0  0  0  0  0  0  0  0  0  0  0  0
   -7.1784    2.5722    4.5499 H   0  0  0  0  0  0  0  0  0  0  0  0
   -7.2995    3.5076    1.5799 H   0  0  0  0  0  0  0  0  0  0  0  0
   -6.8058    1.9006    2.1066 H   0  0  0  0  0  0  0  0  0  0  0  0
   -5.7384    2.8534    1.0833 H   0  0  0  0  0  0  0  0  0  0  0  0
   -2.0205   -6.2620    8.1734 H   0  0  0  0  0  0  0  0  0  0  0  0
   -0.9595   -5.4406    7.0336 H   0  0  0  0  0  0  0  0  0  0  0  0
   -2.7082   -5.2983    6.8680 H   0  0  0  0  0  0  0  0  0  0  0  0
    1.9186   -2.7453    6.6394 H   0  0  0  0  0  0  0  0  0  0  0  0
    2.9391   -1.7550    5.6795 H   0  0  0  0  0  0  0  0  0  0  0  0
    2.1290   -2.9644    3.5939 H   0  0  0  0  0  0  0  0  0  0  0  0
    1.1594   -4.0030    4.5961 H   0  0  0  0  0  0  0  0  0  0  0  0
    4.2228   -3.7861    4.7441 H   0  0  0  0  0  0  0  0  0  0  0  0
    3.3305   -5.1276    4.0308 H   0  0  0  0  0  0  0  0  0  0  0  0
    3.2468   -4.8306    5.7655 H   0  0  0  0  0  0  0  0  0  0  0  0
   -3.4160    2.4200    7.4118 H   0  0  0  0  0  0  0  0  0  0  0  0
   -1.9591    1.8724    6.5580 H   0  0  0  0  0  0  0  0  0  0  0  0
   -2.1461    1.5390    8.2939 H   0  0  0  0  0  0  0  0  0  0  0  0
   -5.2504   -2.2524    5.2347 H   0  0  0  0  0  0  0  0  0  0  0  0
   -5.8782   -1.1692    3.9769 H   0  0  0  0  0  0  0  0  0  0  0  0
   -5.6343   -0.5721    5.6521 H   0  0  0  0  0  0  0  0  0  0  0  0
   -1.5535    4.2050    2.0497 H   0  0  0  0  0  0  0  0  0  0  0  0
    0.0617    3.7112    1.7527 H   0  0  0  0  0  0  0  0  0  0  0  0
    0.7606    4.6706    3.9968 H   0  0  0  0  0  0  0  0  0  0  0  0
   -0.8814    5.1733    4.2753 H   0  0  0  0  0  0  0  0  0  0  0  0
    0.8789    6.1575    1.9515 H   0  0  0  0  0  0  0  0  0  0  0  0
    0.4812    7.0941    3.3898 H   0  0  0  0  0  0  0  0  0  0  0  0
   -0.7783    6.6674    2.2339 H   0  0  0  0  0  0  0  0  0  0  0  0
  1 12  1  0  0  0  0
  1 34  1  0  0  0  0
  1 90  1  0  0  0  0
  1 91  1  0  0  0  0
  2 15  1  0  0  0  0
  2 32  1  0  0  0  0
  2 77  1  0  0  0  0
  2 78  1  0  0  0  0
  3  4  2  0  0  0  0
  3  8  1  0  0  0  0
  3 26  1  0  0  0  0
  4  5  1  0  0  0  0
  4 25  1  0  0  0  0
  5  6  2  0  0  0  0
  5  9  1  0  0  0  0
  6  7  1  0  0  0  0
  6 12  1  0  0  0  0
  7  8  2  0  0  0  0
  7 27  1  0  0  0  0
  8 38  1  0  0  0  0
  9 10  2  0  0  0  0
  9 13  1  0  0  0  0
 10 16  1  0  0  0  0
 11 10  1  0  0  0  0
 11 12  1  0  0  0  0
 11 19  1  0  0  0  0
 13 14  2  0  0  0  0
 13 20  1  0  0  0  0
 14 15  1  0  0  0  0
 14 23  1  0  0  0  0
 15 16  1  0  0  0  0
 16 17  2  0  0  0  0
 17 18  1  0  0  0  0
 17 30  1  0  0  0  0
 18 19  2  0  0  0  0
 18 46  1  0  0  0  0
 19 31  1  0  0  0  0
 20 21  2  0  0  0  0
 20 24  1  0  0  0  0
 21 22  1  0  0  0  0
 21 28  1  0  0  0  0
 22 23  2  0  0  0  0
 22 42  1  0  0  0  0
 23 29  1  0  0  0  0
 24 36  1  0  0  0  0
 25 37  1  0  0  0  0
 32 33  1  0  0  0  0
 32 79  1  0  0  0  0
 32 80  1  0  0  0  0
 33 81  1  0  0  0  0
 33 82  1  0  0  0  0
 33 83  1  0  0  0  0
 34 35  1  0  0  0  0
 34 92  1  0  0  0  0
 34 93  1  0  0  0  0
 35 94  1  0  0  0  0
 35 95  1  0  0  0  0
 35 96  1  0  0  0  0
 36 84  1  0  0  0  0
 36 85  1  0  0  0  0
 36 86  1  0  0  0  0
 37 87  1  0  0  0  0
 37 88  1  0  0  0  0
 37 89  1  0  0  0  0
 38 39  1  0  0  0  0
 38 40  1  0  0  0  0
 38 41  1  0  0  0  0
 39 71  1  0  0  0  0
 39 72  1  0  0  0  0
 39 73  1  0  0  0  0
 40 68  1  0  0  0  0
 40 69  1  0  0  0  0
 40 70  1  0  0  0  0
 41 65  1  0  0  0  0
 41 66  1  0  0  0  0
 41 67  1  0  0  0  0
 42 43  1  0  0  0  0
 42 44  1  0  0  0  0
 42 45  1  0  0  0  0
 43 74  1  0  0  0  0
 43 75  1  0  0  0  0
 43 76  1  0  0  0  0
 44 62  1  0  0  0  0
 44 63  1  0  0  0  0
 44 64  1  0  0  0  0
 45 59  1  0  0  0  0
 45 60  1  0  0  0  0
 45 61  1  0  0  0  0
 46 47  1  0  0  0  0
 46 48  1  0  0  0  0
 46 49  1  0  0  0  0
 47 53  1  0  0  0  0
 47 54  1  0  0  0  0
 47 55  1  0  0  0  0
 48 50  1  0  0  0  0
 48 51  1  0  0  0  0
 48 52  1  0  0  0  0
 49 56  1  0  0  0  0
 49 57  1  0  0  0  0
 49 58  1  0  0  0  0
 97108  1  0  0  0  0
 97130  1  0  0  0  0
 97186  1  0  0  0  0
 97187  1  0  0  0  0
 98111  1  0  0  0  0
 98128  1  0  0  0  0
 98173  1  0  0  0  0
 98174  1  0  0  0  0
 99100  2  0  0  0  0
 99104  1  0  0  0  0
 99122  1  0  0  0  0
100101  1  0  0  0  0
100121  1  0  0  0  0
101102  2  0  0  0  0
101105  1  0  0  0  0
102103  1  0  0  0  0
102108  1  0  0  0  0
103104  2  0  0  0  0
103123  1  0  0  0  0
104134  1  0  0  0  0
105106  2  0  0  0  0
105109  1  0  0  0  0
106112  1  0  0  0  0
107106  1  0  0  0  0
107108  1  0  0  0  0
107115  1  0  0  0  0
109110  2  0  0  0  0
109116  1  0  0  0  0
110111  1  0  0  0  0
110119  1  0  0  0  0
111112  1  0  0  0  0
112113  2  0  0  0  0
113114  1  0  0  0  0
113126  1  0  0  0  0
114115  2  0  0  0  0
114142  1  0  0  0  0
115127  1  0  0  0  0
116117  2  0  0  0  0
116120  1  0  0  0  0
117118  1  0  0  0  0
117124  1  0  0  0  0
118119  2  0  0  0  0
118138  1  0  0  0  0
119125  1  0  0  0  0
120132  1  0  0  0  0
121133  1  0  0  0  0
128129  1  0  0  0  0
128175  1  0  0  0  0
128176  1  0  0  0  0
129177  1  0  0  0  0
129178  1  0  0  0  0
129179  1  0  0  0  0
130131  1  0  0  0  0
130188  1  0  0  0  0
130189  1  0  0  0  0
131190  1  0  0  0  0
131191  1  0  0  0  0
131192  1  0  0  0  0
132180  1  0  0  0  0
132181  1  0  0  0  0
132182  1  0  0  0  0
133183  1  0  0  0  0
133184  1  0  0  0  0
133185  1  0  0  0  0
134135  1  0  0  0  0
134136  1  0  0  0  0
134137  1  0  0  0  0
135167  1  0  0  0  0
135168  1  0  0  0  0
135169  1  0  0  0  0
136164  1  0  0  0  0
136165  1  0  0  0  0
136166  1  0  0  0  0
137161  1  0  0  0  0
137162  1  0  0  0  0
137163  1  0  0  0  0
138139  1  0  0  0  0
138140  1  0  0  0  0
138141  1  0  0  0  0
139170  1  0  0  0  0
139171  1  0  0  0  0
139172  1  0  0  0  0
140158  1  0  0  0  0
140159  1  0  0  0  0
140160  1  0  0  0  0
141155  1  0  0  0  0
141156  1  0  0  0  0
141157  1  0  0  0  0
142143  1  0  0  0  0
142144  1  0  0  0  0
142145  1  0  0  0  0
143149  1  0  0  0  0
143150  1  0  0  0  0
143151  1  0  0  0  0
144146  1  0  0  0  0
144147  1  0  0  0  0
144148  1  0  0  0  0
145152  1  0  0  0  0
145153  1  0  0  0  0
145154  1  0  0  0  0
M  END
