xtb: 6.7.1 (edcfbbe)_xtb: 6.7.1 (edcfbbe)
 OpenBabel12022412373D

192200  0  0  0  0  0  0  0  0999 V2000
   -0.0931    3.4278   -3.9248 C   0  0  0  0  0  0  0  0  0  0  0  0
    1.8174   -2.6544   -0.5643 C   0  0  0  0  0  0  0  0  0  0  0  0
   -4.3819    1.0863   -2.7417 C   0  0  0  0  0  0  0  0  0  0  0  0
   -3.3763    0.3142   -2.1941 C   0  0  0  0  0  0  0  0  0  0  0  0
   -2.0591    0.8254   -2.1018 C   0  0  0  0  0  0  0  0  0  0  0  0
   -1.7464    1.9969   -2.8264 C   0  0  0  0  0  0  0  0  0  0  0  0
   -2.7884    2.7671   -3.3386 C   0  0  0  0  0  0  0  0  0  0  0  0
   -4.1108    2.3499   -3.2631 C   0  0  0  0  0  0  0  0  0  0  0  0
   -1.0437    0.1938   -1.3282 C   0  0  0  0  0  0  0  0  0  0  0  0
    0.3040    0.5064   -1.6398 C   0  0  0  0  0  0  0  0  0  0  0  0
    0.6205    1.6296   -2.4309 C   0  0  1  0  0  0  0  0  0  0  0  0
   -0.4144    2.3705   -2.9907 N   0  0  0  0  0  0  0  0  0  0  0  0
   -1.2635   -0.6439   -0.1907 C   0  0  0  0  0  0  0  0  0  0  0  0
   -0.2382   -1.5415    0.1874 C   0  0  0  0  0  0  0  0  0  0  0  0
    0.9881   -1.4740   -0.4630 N   0  0  0  0  0  0  0  0  0  0  0  0
    1.3383   -0.3099   -1.1398 C   0  0  0  0  0  0  0  0  0  0  0  0
    2.6599    0.0624   -1.3339 C   0  0  0  0  0  0  0  0  0  0  0  0
    2.9839    1.2143   -2.0433 C   0  0  0  0  0  0  0  0  0  0  0  0
    1.9592    1.9749   -2.5947 C   0  0  0  0  0  0  0  0  0  0  0  0
   -2.4100   -0.5969    0.6274 C   0  0  0  0  0  0  0  0  0  0  0  0
   -2.6128   -1.5370    1.6232 C   0  0  0  0  0  0  0  0  0  0  0  0
   -1.6676   -2.5154    1.8969 C   0  0  0  0  0  0  0  0  0  0  0  0
   -0.4627   -2.4643    1.1999 C   0  0  0  0  0  0  0  0  0  0  0  0
   -3.3783    0.3902    0.4916 O   0  0  0  0  0  0  0  0  0  0  0  0
   -3.5352   -0.9805   -1.7947 O   0  0  0  0  0  0  0  0  0  0  0  0
   -5.3897    0.7067   -2.7607 H   0  0  0  0  0  0  0  0  0  0  0  0
   -2.5775    3.7223   -3.7804 H   0  0  0  0  0  0  0  0  0  0  0  0
   -3.5315   -1.4636    2.1808 H   0  0  0  0  0  0  0  0  0  0  0  0
    0.3200   -3.1547    1.4651 H   0  0  0  0  0  0  0  0  0  0  0  0
    3.4476   -0.5316   -0.9001 H   0  0  0  0  0  0  0  0  0  0  0  0
    2.2202    2.8622   -3.1386 H   0  0  0  0  0  0  0  0  0  0  0  0
    1.0928   -3.7837   -1.3072 C   0  0  0  0  0  0  0  0  0  0  0  0
    1.9775   -5.0166   -1.4333 C   0  0  0  0  0  0  0  0  0  0  0  0
    0.0574    4.7903   -3.2405 C   0  0  0  0  0  0  0  0  0  0  0  0
    0.4038    5.8801   -4.2462 C   0  0  0  0  0  0  0  0  0  0  0  0
   -2.9437    1.6856    0.8293 C   0  0  0  0  0  0  0  0  0  0  0  0
   -4.8346   -1.4655   -1.5883 C   0  0  0  0  0  0  0  0  0  0  0  0
   -5.2661    3.2024   -3.7649 C   0  0  0  0  0  0  0  0  0  0  0  0
   -5.9942    2.4595   -4.8946 C   0  0  0  0  0  0  0  0  0  0  0  0
   -6.2354    3.4552   -2.6012 C   0  0  0  0  0  0  0  0  0  0  0  0
   -4.8166    4.5620   -4.3085 C   0  0  0  0  0  0  0  0  0  0  0  0
   -1.8746   -3.5970    2.9451 C   0  0  0  0  0  0  0  0  0  0  0  0
   -1.7208   -4.9720    2.2785 C   0  0  0  0  0  0  0  0  0  0  0  0
   -3.2642   -3.5333    3.5842 C   0  0  0  0  0  0  0  0  0  0  0  0
   -0.8281   -3.4401    4.0574 C   0  0  0  0  0  0  0  0  0  0  0  0
    4.4491    1.5987   -2.1905 C   0  0  0  0  0  0  0  0  0  0  0  0
    4.6542    2.8901   -2.9880 C   0  0  0  0  0  0  0  0  0  0  0  0
    5.1935    0.4707   -2.9198 C   0  0  0  0  0  0  0  0  0  0  0  0
    5.0581    1.8052   -0.7960 C   0  0  0  0  0  0  0  0  0  0  0  0
    6.2373    0.7415   -3.0655 H   0  0  0  0  0  0  0  0  0  0  0  0
    4.7430    0.2925   -3.8943 H   0  0  0  0  0  0  0  0  0  0  0  0
    5.1598   -0.4564   -2.3543 H   0  0  0  0  0  0  0  0  0  0  0  0
    5.7182    3.1103   -3.0514 H   0  0  0  0  0  0  0  0  0  0  0  0
    4.1675    3.7327   -2.5020 H   0  0  0  0  0  0  0  0  0  0  0  0
    4.2734    2.7905   -4.0020 H   0  0  0  0  0  0  0  0  0  0  0  0
    6.1036    2.0947   -0.8813 H   0  0  0  0  0  0  0  0  0  0  0  0
    5.0040    0.8982   -0.2008 H   0  0  0  0  0  0  0  0  0  0  0  0
    4.5232    2.5908   -0.2665 H   0  0  0  0  0  0  0  0  0  0  0  0
   -0.9788   -4.1965    4.8252 H   0  0  0  0  0  0  0  0  0  0  0  0
   -0.9147   -2.4579    4.5172 H   0  0  0  0  0  0  0  0  0  0  0  0
    0.1813   -3.5454    3.6694 H   0  0  0  0  0  0  0  0  0  0  0  0
   -3.3759   -4.3493    4.2960 H   0  0  0  0  0  0  0  0  0  0  0  0
   -4.0427   -3.6315    2.8314 H   0  0  0  0  0  0  0  0  0  0  0  0
   -3.4049   -2.5985    4.1212 H   0  0  0  0  0  0  0  0  0  0  0  0
   -5.6891    5.1322   -4.6222 H   0  0  0  0  0  0  0  0  0  0  0  0
   -4.1671    4.4436   -5.1730 H   0  0  0  0  0  0  0  0  0  0  0  0
   -4.2975    5.1373   -3.5454 H   0  0  0  0  0  0  0  0  0  0  0  0
   -7.0775    4.0584   -2.9352 H   0  0  0  0  0  0  0  0  0  0  0  0
   -5.7261    3.9856   -1.7991 H   0  0  0  0  0  0  0  0  0  0  0  0
   -6.6212    2.5228   -2.1991 H   0  0  0  0  0  0  0  0  0  0  0  0
   -6.8005    3.0739   -5.2904 H   0  0  0  0  0  0  0  0  0  0  0  0
   -6.4216    1.5248   -4.5434 H   0  0  0  0  0  0  0  0  0  0  0  0
   -5.3015    2.2345   -5.7029 H   0  0  0  0  0  0  0  0  0  0  0  0
   -1.8957   -5.7642    3.0038 H   0  0  0  0  0  0  0  0  0  0  0  0
   -0.7243   -5.1038    1.8660 H   0  0  0  0  0  0  0  0  0  0  0  0
   -2.4410   -5.0779    1.4699 H   0  0  0  0  0  0  0  0  0  0  0  0
    2.1350   -2.9962    0.4276 H   0  0  0  0  0  0  0  0  0  0  0  0
    2.7135   -2.3988   -1.1290 H   0  0  0  0  0  0  0  0  0  0  0  0
    0.8146   -3.4223   -2.2994 H   0  0  0  0  0  0  0  0  0  0  0  0
    0.1727   -4.0395   -0.7803 H   0  0  0  0  0  0  0  0  0  0  0  0
    2.8898   -4.7815   -1.9778 H   0  0  0  0  0  0  0  0  0  0  0  0
    1.4543   -5.8062   -1.9666 H   0  0  0  0  0  0  0  0  0  0  0  0
    2.2537   -5.3927   -0.4503 H   0  0  0  0  0  0  0  0  0  0  0  0
   -3.7668    2.3563    0.5859 H   0  0  0  0  0  0  0  0  0  0  0  0
   -2.0573    1.9855    0.2623 H   0  0  0  0  0  0  0  0  0  0  0  0
   -2.7189    1.7551    1.9013 H   0  0  0  0  0  0  0  0  0  0  0  0
   -4.7122   -2.4544   -1.1479 H   0  0  0  0  0  0  0  0  0  0  0  0
   -5.3901   -1.5579   -2.5292 H   0  0  0  0  0  0  0  0  0  0  0  0
   -5.3874   -0.8270   -0.8930 H   0  0  0  0  0  0  0  0  0  0  0  0
   -0.8736    3.4771   -4.6871 H   0  0  0  0  0  0  0  0  0  0  0  0
    0.8308    3.1707   -4.4488 H   0  0  0  0  0  0  0  0  0  0  0  0
    0.8382    4.7240   -2.4804 H   0  0  0  0  0  0  0  0  0  0  0  0
   -0.8749    5.0387   -2.7297 H   0  0  0  0  0  0  0  0  0  0  0  0
    1.3427    5.6544   -4.7477 H   0  0  0  0  0  0  0  0  0  0  0  0
    0.5040    6.8413   -3.7483 H   0  0  0  0  0  0  0  0  0  0  0  0
   -0.3743    5.9650   -5.0020 H   0  0  0  0  0  0  0  0  0  0  0  0
   -0.0931    3.4278    2.0752 C   0  0  0  0  0  0  0  0  0  0  0  0
    1.8174   -2.6544    5.4357 C   0  0  0  0  0  0  0  0  0  0  0  0
   -4.3819    1.0863    3.2583 C   0  0  0  0  0  0  0  0  0  0  0  0
   -3.3763    0.3142    3.8059 C   0  0  0  0  0  0  0  0  0  0  0  0
   -2.0591    0.8254    3.8982 C   0  0  0  0  0  0  0  0  0  0  0  0
   -1.7464    1.9969    3.1736 C   0  0  0  0  0  0  0  0  0  0  0  0
   -2.7884    2.7671    2.6614 C   0  0  0  0  0  0  0  0  0  0  0  0
   -4.1108    2.3499    2.7369 C   0  0  0  0  0  0  0  0  0  0  0  0
   -1.0437    0.1938    4.6718 C   0  0  0  0  0  0  0  0  0  0  0  0
    0.3040    0.5064    4.3602 C   0  0  0  0  0  0  0  0  0  0  0  0
    0.6205    1.6296    3.5691 C   0  0  1  0  0  0  0  0  0  0  0  0
   -0.4144    2.3705    3.0093 N   0  0  0  0  0  0  0  0  0  0  0  0
   -1.2635   -0.6439    5.8093 C   0  0  0  0  0  0  0  0  0  0  0  0
   -0.2382   -1.5415    6.1874 C   0  0  0  0  0  0  0  0  0  0  0  0
    0.9881   -1.4740    5.5370 N   0  0  0  0  0  0  0  0  0  0  0  0
    1.3383   -0.3099    4.8602 C   0  0  0  0  0  0  0  0  0  0  0  0
    2.6599    0.0624    4.6661 C   0  0  0  0  0  0  0  0  0  0  0  0
    2.9839    1.2143    3.9567 C   0  0  0  0  0  0  0  0  0  0  0  0
    1.9592    1.9749    3.4053 C   0  0  0  0  0  0  0  0  0  0  0  0
   -2.4100   -0.5969    6.6274 C   0  0  0  0  0  0  0  0  0  0  0  0
   -2.6128   -1.5370    7.6232 C   0  0  0  0  0  0  0  0  0  0  0  0
   -1.6676   -2.5154    7.8969 C   0  0  0  0  0  0  0  0  0  0  0  0
   -0.4627   -2.4643    7.1999 C   0  0  0  0  0  0  0  0  0  0  0  0
   -3.3783    0.3902    6.4916 O   0  0  0  0  0  0  0  0  0  0  0  0
   -3.5352   -0.9805    4.2053 O   0  0  0  0  0  0  0  0  0  0  0  0
   -5.3897    0.7067    3.2393 H   0  0  0  0  0  0  0  0  0  0  0  0
   -2.5775    3.7223    2.2196 H   0  0  0  0  0  0  0  0  0  0  0  0
   -3.5315   -1.4636    8.1808 H   0  0  0  0  0  0  0  0  0  0  0  0
    0.3200   -3.1547    7.4651 H   0  0  0  0  0  0  0  0  0  0  0  0
    3.4476   -0.5316    5.0999 H   0  0  0  0  0  0  0  0  0  0  0  0
    2.2202    2.8622    2.8614 H   0  0  0  0  0  0  0  0  0  0  0  0
    1.0928   -3.7837    4.6928 C   0  0  0  0  0  0  0  0  0  0  0  0
    1.9775   -5.0166    4.5667 C   0  0  0  0  0  0  0  0  0  0  0  0
    0.0574    4.7903    2.7595 C   0  0  0  0  0  0  0  0  0  0  0  0
    0.4038    5.8801    1.7538 C   0  0  0  0  0  0  0  0  0  0  0  0
   -2.9437    1.6856    6.8293 C   0  0  0  0  0  0  0  0  0  0  0  0
   -4.8346   -1.4655    4.4117 C   0  0  0  0  0  0  0  0  0  0  0  0
   -5.2661    3.2024    2.2351 C   0  0  0  0  0  0  0  0  0  0  0  0
   -5.9942    2.4595    1.1054 C   0  0  0  0  0  0  0  0  0  0  0  0
   -6.2354    3.4552    3.3988 C   0  0  0  0  0  0  0  0  0  0  0  0
   -4.8166    4.5620    1.6915 C   0  0  0  0  0  0  0  0  0  0  0  0
   -1.8746   -3.5970    8.9451 C   0  0  0  0  0  0  0  0  0  0  0  0
   -1.7208   -4.9720    8.2785 C   0  0  0  0  0  0  0  0  0  0  0  0
   -3.2642   -3.5333    9.5842 C   0  0  0  0  0  0  0  0  0  0  0  0
   -0.8281   -3.4401   10.0574 C   0  0  0  0  0  0  0  0  0  0  0  0
    4.4491    1.5987    3.8095 C   0  0  0  0  0  0  0  0  0  0  0  0
    4.6542    2.8901    3.0120 C   0  0  0  0  0  0  0  0  0  0  0  0
    5.1935    0.4707    3.0802 C   0  0  0  0  0  0  0  0  0  0  0  0
    5.0581    1.8052    5.2040 C   0  0  0  0  0  0  0  0  0  0  0  0
    6.2373    0.7415    2.9345 H   0  0  0  0  0  0  0  0  0  0  0  0
    4.7430    0.2925    2.1057 H   0  0  0  0  0  0  0  0  0  0  0  0
    5.1598   -0.4564    3.6457 H   0  0  0  0  0  0  0  0  0  0  0  0
    5.7182    3.1103    2.9486 H   0  0  0  0  0  0  0  0  0  0  0  0
    4.1675    3.7327    3.4980 H   0  0  0  0  0  0  0  0  0  0  0  0
    4.2734    2.7905    1.9980 H   0  0  0  0  0  0  0  0  0  0  0  0
    6.1036    2.0947    5.1187 H   0  0  0  0  0  0  0  0  0  0  0  0
    5.0040    0.8982    5.7992 H   0  0  0  0  0  0  0  0  0  0  0  0
    4.5232    2.5908    5.7335 H   0  0  0  0  0  0  0  0  0  0  0  0
   -0.9788   -4.1965   10.8252 H   0  0  0  0  0  0  0  0  0  0  0  0
   -0.9147   -2.4579   10.5172 H   0  0  0  0  0  0  0  0  0  0  0  0
    0.1813   -3.5454    9.6694 H   0  0  0  0  0  0  0  0  0  0  0  0
   -3.3759   -4.3493   10.2960 H   0  0  0  0  0  0  0  0  0  0  0  0
   -4.0427   -3.6315    8.8314 H   0  0  0  0  0  0  0  0  0  0  0  0
   -3.4049   -2.5985   10.1212 H   0  0  0  0  0  0  0  0  0  0  0  0
   -5.6891    5.1322    1.3778 H   0  0  0  0  0  0  0  0  0  0  0  0
   -4.1671    4.4436    0.8270 H   0  0  0  0  0  0  0  0  0  0  0  0
   -4.2975    5.1373    2.4546 H   0  0  0  0  0  0  0  0  0  0  0  0
   -7.0775    4.0584    3.0648 H   0  0  0  0  0  0  0  0  0  0  0  0
   -5.7261    3.9856    4.2009 H   0  0  0  0  0  0  0  0  0  0  0  0
   -6.6212    2.5228    3.8009 H   0  0  0  0  0  0  0  0  0  0  0  0
   -6.8005    3.0739    0.7096 H   0  0  0  0  0  0  0  0  0  0  0  0
   -6.4216    1.5248    1.4566 H   0  0  0  0  0  0  0  0  0  0  0  0
   -5.3015    2.2345    0.2971 H   0  0  0  0  0  0  0  0  0  0  0  0
   -1.8957   -5.7642    9.0038 H   0  0  0  0  0  0  0  0  0  0  0  0
   -0.7243   -5.1038    7.8660 H   0  0  0  0  0  0  0  0  0  0  0  0
   -2.4410   -5.0779    7.4699 H   0  0  0  0  0  0  0  0  0  0  0  0
    2.1350   -2.9962    6.4276 H   0  0  0  0  0  0  0  0  0  0  0  0
    2.7135   -2.3988    4.8710 H   0  0  0  0  0  0  0  0  0  0  0  0
    0.8146   -3.4223    3.7006 H   0  0  0  0  0  0  0  0  0  0  0  0
    0.1727   -4.0395    5.2197 H   0  0  0  0  0  0  0  0  0  0  0  0
    2.8898   -4.7815    4.0222 H   0  0  0  0  0  0  0  0  0  0  0  0
    1.4543   -5.8062    4.0334 H   0  0  0  0  0  0  0  0  0  0  0  0
    2.2537   -5.3927    5.5497 H   0  0  0  0  0  0  0  0  0  0  0  0
   -3.7668    2.3563    6.5859 H   0  0  0  0  0  0  0  0  0  0  0  0
   -2.0573    1.9855    6.2623 H   0  0  0  0  0  0  0  0  0  0  0  0
   -2.7189    1.7551    7.9013 H   0  0  0  0  0  0  0  0  0  0  0  0
   -4.7122   -2.4544    4.8521 H   0  0  0  0  0  0  0  0  0  0  0  0
   -5.3901   -1.5579    3.4708 H   0  0  0  0  0  0  0  0  0  0  0  0
   -5.3874   -0.8270    5.1070 H   0  0  0  0  0  0  0  0  0  0  0  0
   -0.8736    3.4771    1.3129 H   0  0  0  0  0  0  0  0  0  0  0  0
    0.8308    3.1707    1.5512 H   0  0  0  0  0  0  0  0  0  0  0  0
    0.8382    4.7240    3.5196 H   0  0  0  0  0  0  0  0  0  0  0  0
   -0.8749    5.0387    3.2703 H   0  0  0  0  0  0  0  0  0  0  0  0
    1.3427    5.6544    1.2523 H   0  0  0  0  0  0  0  0  0  0  0  0
    0.5040    6.8413    2.2517 H   0  0  0  0  0  0  0  0  0  0  0  0
   -0.3743    5.9650    0.9980 H   0  0  0  0  0  0  0  0  0  0  0  0
  1 12  1  0  0  0  0
  1 34  1  0  0  0  0
  1 90  1  0  0  0  0
  1 91  1  0  0  0  0
  2 15  1  0  0  0  0
  2 32  1  0  0  0  0
  2 77  1  0  0  0  0
  2 78  1  0  0  0  0
  3  4  2  0  0  0  0
  3  8  1  0  0  0  0
  3 26  1  0  0  0  0
  4  5  1  0  0  0  0
  4 25  1  0  0  0  0
  5  6  2  0  0  0  0
  5  9  1  0  0  0  0
  6  7  1  0  0  0  0
  6 12  1  0  0  0  0
  7  8  2  0  0  0  0
  7 27  1  0  0  0  0
  8 38  1  0  0  0  0
  9 10  2  0  0  0  0
  9 13  1  0  0  0  0
 10 16  1  0  0  0  0
 11 10  1  1  0  0  0
 11 12  1  0  0  0  0
 11 19  1  0  0  0  0
 13 14  2  0  0  0  0
 13 20  1  0  0  0  0
 14 15  1  0  0  0  0
 14 23  1  0  0  0  0
 15 16  1  0  0  0  0
 16 17  2  0  0  0  0
 17 18  1  0  0  0  0
 17 30  1  0  0  0  0
 18 19  2  0  0  0  0
 18 46  1  0  0  0  0
 19 31  1  0  0  0  0
 20 21  2  0  0  0  0
 20 24  1  0  0  0  0
 21 22  1  0  0  0  0
 21 28  1  0  0  0  0
 22 23  2  0  0  0  0
 22 42  1  0  0  0  0
 23 29  1  0  0  0  0
 24 36  1  0  0  0  0
 25 37  1  0  0  0  0
 32 33  1  0  0  0  0
 32 79  1  0  0  0  0
 32 80  1  0  0  0  0
 33 81  1  0  0  0  0
 33 82  1  0  0  0  0
 33 83  1  0  0  0  0
 34 35  1  0  0  0  0
 34 92  1  0  0  0  0
 34 93  1  0  0  0  0
 35 94  1  0  0  0  0
 35 95  1  0  0  0  0
 35 96  1  0  0  0  0
 36 84  1  0  0  0  0
 36 85  1  0  0  0  0
 36 86  1  0  0  0  0
 37 87  1  0  0  0  0
 37 88  1  0  0  0  0
 37 89  1  0  0  0  0
 38 39  1  0  0  0  0
 38 40  1  0  0  0  0
 38 41  1  0  0  0  0
 39 71  1  0  0  0  0
 39 72  1  0  0  0  0
 39 73  1  0  0  0  0
 40 68  1  0  0  0  0
 40 69  1  0  0  0  0
 40 70  1  0  0  0  0
 41 65  1  0  0  0  0
 41 66  1  0  0  0  0
 41 67  1  0  0  0  0
 42 43  1  0  0  0  0
 42 44  1  0  0  0  0
 42 45  1  0  0  0  0
 43 74  1  0  0  0  0
 43 75  1  0  0  0  0
 43 76  1  0  0  0  0
 44 62  1  0  0  0  0
 44 63  1  0  0  0  0
 44 64  1  0  0  0  0
 45 59  1  0  0  0  0
 45 60  1  0  0  0  0
 45 61  1  0  0  0  0
 46 47  1  0  0  0  0
 46 48  1  0  0  0  0
 46 49  1  0  0  0  0
 47 53  1  0  0  0  0
 47 54  1  0  0  0  0
 47 55  1  0  0  0  0
 48 50  1  0  0  0  0
 48 51  1  0  0  0  0
 48 52  1  0  0  0  0
 49 56  1  0  0  0  0
 49 57  1  0  0  0  0
 49 58  1  0  0  0  0
 97108  1  0  0  0  0
 97130  1  0  0  0  0
 97186  1  0  0  0  0
 97187  1  0  0  0  0
 98111  1  0  0  0  0
 98128  1  0  0  0  0
 98173  1  0  0  0  0
 98174  1  0  0  0  0
 99100  2  0  0  0  0
 99104  1  0  0  0  0
 99122  1  0  0  0  0
100101  1  0  0  0  0
100121  1  0  0  0  0
101102  2  0  0  0  0
101105  1  0  0  0  0
102103  1  0  0  0  0
102108  1  0  0  0  0
103104  2  0  0  0  0
103123  1  0  0  0  0
104134  1  0  0  0  0
105106  2  0  0  0  0
105109  1  0  0  0  0
106112  1  0  0  0  0
107106  1  1  0  0  0
107108  1  0  0  0  0
107115  1  0  0  0  0
109110  2  0  0  0  0
109116  1  0  0  0  0
110111  1  0  0  0  0
110119  1  0  0  0  0
111112  1  0  0  0  0
112113  2  0  0  0  0
113114  1  0  0  0  0
113126  1  0  0  0  0
114115  2  0  0  0  0
114142  1  0  0  0  0
115127  1  0  0  0  0
116117  2  0  0  0  0
116120  1  0  0  0  0
117118  1  0  0  0  0
117124  1  0  0  0  0
118119  2  0  0  0  0
118138  1  0  0  0  0
119125  1  0  0  0  0
120132  1  0  0  0  0
121133  1  0  0  0  0
128129  1  0  0  0  0
128175  1  0  0  0  0
128176  1  0  0  0  0
129177  1  0  0  0  0
129178  1  0  0  0  0
129179  1  0  0  0  0
130131  1  0  0  0  0
130188  1  0  0  0  0
130189  1  0  0  0  0
131190  1  0  0  0  0
131191  1  0  0  0  0
131192  1  0  0  0  0
132180  1  0  0  0  0
132181  1  0  0  0  0
132182  1  0  0  0  0
133183  1  0  0  0  0
133184  1  0  0  0  0
133185  1  0  0  0  0
134135  1  0  0  0  0
134136  1  0  0  0  0
134137  1  0  0  0  0
135167  1  0  0  0  0
135168  1  0  0  0  0
135169  1  0  0  0  0
136164  1  0  0  0  0
136165  1  0  0  0  0
136166  1  0  0  0  0
137161  1  0  0  0  0
137162  1  0  0  0  0
137163  1  0  0  0  0
138139  1  0  0  0  0
138140  1  0  0  0  0
138141  1  0  0  0  0
139170  1  0  0  0  0
139171  1  0  0  0  0
139172  1  0  0  0  0
140158  1  0  0  0  0
140159  1  0  0  0  0
140160  1  0  0  0  0
141155  1  0  0  0  0
141156  1  0  0  0  0
141157  1  0  0  0  0
142143  1  0  0  0  0
142144  1  0  0  0  0
142145  1  0  0  0  0
143149  1  0  0  0  0
143150  1  0  0  0  0
143151  1  0  0  0  0
144146  1  0  0  0  0
144147  1  0  0  0  0
144148  1  0  0  0  0
145152  1  0  0  0  0
145153  1  0  0  0  0
145154  1  0  0  0  0
M  END
