 energy: -145.584005828784 gnorm: 0.000142324461 xtb: 6.7.1 (edcfbbe)
          02242515393D

 55 59  0     0  0            999 V2000
   -2.3021    2.2010   -1.6156 C   0  0  0  0  0  0  0  0  0  0  0  0
   -2.0669    0.9765   -0.9842 C   0  0  0  0  0  0  0  0  0  0  0  0
   -1.0502    0.9122    0.0080 C   0  0  0  0  0  0  0  0  0  0  0  0
   -0.1200    2.0111    0.1108 C   0  0  0  0  0  0  0  0  0  0  0  0
   -0.4059    3.2469   -0.5428 C   0  0  0  0  0  0  0  0  0  0  0  0
   -1.4977    3.3009   -1.3474 C   0  0  0  0  0  0  0  0  0  0  0  0
   -0.7984   -0.2228    0.8397 C   0  0  0  0  0  0  0  0  0  0  0  0
    0.5108   -0.3459    1.3492 C   0  0  0  0  0  0  0  0  0  0  0  0
    1.4146    0.7511    1.2588 C   0  0  0  0  0  0  0  0  0  0  0  0
    1.0426    1.9120    0.7289 N   0  0  0  0  0  0  0  0  0  0  0  0
   -1.7223   -1.2476    1.2127 C   0  0  0  0  0  0  0  0  0  0  0  0
   -1.1581   -2.4873    1.6906 C   0  0  0  0  0  0  0  0  0  0  0  0
    0.1138   -2.6167    2.0209 N   0  0  0  0  0  0  0  0  0  0  0  0
    0.9267   -1.5673    1.9522 C   0  0  0  0  0  0  0  0  0  0  0  0
    2.2574   -1.6799    2.4261 C   0  0  0  0  0  0  0  0  0  0  0  0
    3.0942   -0.5895    2.3522 C   0  0  0  0  0  0  0  0  0  0  0  0
    2.7145    0.6158    1.8063 C   0  0  0  0  0  0  0  0  0  0  0  0
   -3.1343   -1.0846    1.2580 C   0  0  0  0  0  0  0  0  0  0  0  0
   -3.9260   -2.2139    1.4851 C   0  0  0  0  0  0  0  0  0  0  0  0
   -3.3416   -3.4444    1.7553 C   0  0  0  0  0  0  0  0  0  0  0  0
   -2.0032   -3.6178    1.9000 C   0  0  0  0  0  0  0  0  0  0  0  0
   -3.6195    0.1436    1.1254 O   0  0  0  0  0  0  0  0  0  0  0  0
   -2.7066   -0.1462   -1.2874 O   0  0  0  0  0  0  0  0  0  0  0  0
    0.2666    4.0784   -0.4132 H   0  0  0  0  0  0  0  0  0  0  0  0
   -3.1119    2.3200   -2.3165 H   0  0  0  0  0  0  0  0  0  0  0  0
    3.3845    1.4630    1.7870 H   0  0  0  0  0  0  0  0  0  0  0  0
    2.5925   -2.6221    2.8350 H   0  0  0  0  0  0  0  0  0  0  0  0
   -1.5642   -4.5542    2.2017 H   0  0  0  0  0  0  0  0  0  0  0  0
   -5.0015   -2.1566    1.4500 H   0  0  0  0  0  0  0  0  0  0  0  0
   -5.0137    0.3768    1.2868 C   0  0  0  0  0  0  0  0  0  0  0  0
   -3.6419   -0.1626   -2.3594 C   0  0  0  0  0  0  0  0  0  0  0  0
   -1.9447    4.8966   -2.1868 S   0  0  0  0  0  0  0  0  0  0  0  0
   -3.5361    4.6618   -1.8030 F   0  0  0  0  0  0  0  0  0  0  0  0
   -1.7285    5.7286   -0.7890 F   0  0  0  0  0  0  0  0  0  0  0  0
   -2.3569    6.2545   -2.9038 F   0  0  0  0  0  0  0  0  0  0  0  0
   -2.1940    4.1103   -3.6158 F   0  0  0  0  0  0  0  0  0  0  0  0
   -0.3839    5.1738   -2.6019 F   0  0  0  0  0  0  0  0  0  0  0  0
   -4.4863   -4.8924    1.9646 S   0  0  0  0  0  0  0  0  0  0  0  0
   -5.5021   -3.9930    2.9033 F   0  0  0  0  0  0  0  0  0  0  0  0
   -5.3377   -4.4220    0.6271 F   0  0  0  0  0  0  0  0  0  0  0  0
   -5.4851   -6.1193    2.1224 F   0  0  0  0  0  0  0  0  0  0  0  0
   -3.5225   -5.8295    1.0230 F   0  0  0  0  0  0  0  0  0  0  0  0
   -3.6845   -5.3981    3.3011 F   0  0  0  0  0  0  0  0  0  0  0  0
    4.8296   -0.7529    3.0242 S   0  0  0  0  0  0  0  0  0  0  0  0
    5.4356    0.0081    1.7026 F   0  0  0  0  0  0  0  0  0  0  0  0
    5.0039   -2.2027    2.2758 F   0  0  0  0  0  0  0  0  0  0  0  0
    6.3044   -0.8915    3.5951 F   0  0  0  0  0  0  0  0  0  0  0  0
    4.6914    0.6936    3.7866 F   0  0  0  0  0  0  0  0  0  0  0  0
    4.2629   -1.5176    4.3609 F   0  0  0  0  0  0  0  0  0  0  0  0
   -3.9603   -1.2000   -2.4463 H   0  0  0  0  0  0  0  0  0  0  0  0
   -3.1761    0.1556   -3.2940 H   0  0  0  0  0  0  0  0  0  0  0  0
   -4.5050    0.4701   -2.1427 H   0  0  0  0  0  0  0  0  0  0  0  0
   -5.1354    1.4555    1.2053 H   0  0  0  0  0  0  0  0  0  0  0  0
   -5.3583    0.0438    2.2677 H   0  0  0  0  0  0  0  0  0  0  0  0
   -5.5921   -0.1188    0.5043 H   0  0  0  0  0  0  0  0  0  0  0  0
  1  2  2  0  0  0  0
  1 25  1  0  0  0  0
  2  3  1  0  0  0  0
  2 23  1  0  0  0  0
  3  4  2  0  0  0  0
  3  7  1  0  0  0  0
  4  5  1  0  0  0  0
  5  6  2  0  0  0  0
  5 24  1  0  0  0  0
  6 32  1  0  0  0  0
  6  1  1  0  0  0  0
  7 11  2  0  0  0  0
  8  7  1  0  0  0  0
  8  9  1  0  0  0  0
  9 10  2  0  0  0  0
 10  4  1  0  0  0  0
 11 12  1  0  0  0  0
 11 18  1  0  0  0  0
 12 13  2  0  0  0  0
 13 14  1  0  0  0  0
 14  8  1  0  0  0  0
 14 15  2  0  0  0  0
 15 16  1  0  0  0  0
 15 27  1  0  0  0  0
 16 44  1  0  0  0  0
 16 17  2  0  0  0  0
 17  9  1  0  0  0  0
 17 26  1  0  0  0  0
 18 19  2  0  0  0  0
 19 20  1  0  0  0  0
 19 29  1  0  0  0  0
 20 38  1  0  0  0  0
 20 21  2  0  0  0  0
 21 12  1  0  0  0  0
 21 28  1  0  0  0  0
 22 30  1  0  0  0  0
 22 18  1  0  0  0  0
 23 31  1  0  0  0  0
 30 53  1  0  0  0  0
 30 54  1  0  0  0  0
 30 55  1  0  0  0  0
 31 50  1  0  0  0  0
 31 51  1  0  0  0  0
 31 52  1  0  0  0  0
 32 33  1  0  0  0  0
 32 34  1  0  0  0  0
 32 35  1  0  0  0  0
 32 36  1  0  0  0  0
 32 37  1  0  0  0  0
 38 39  1  0  0  0  0
 38 40  1  0  0  0  0
 38 41  1  0  0  0  0
 38 42  1  0  0  0  0
 38 43  1  0  0  0  0
 44 45  1  0  0  0  0
 44 46  1  0  0  0  0
 44 47  1  0  0  0  0
 44 48  1  0  0  0  0
 44 49  1  0  0  0  0
M  CHG  1   1   1
M  END
