 energy: -21.820579244034 gnorm: 0.000492547890 xtb: 6.7.1 (edcfbbe)
          03042512423D

116124  0     0  0            999 V2000
   -0.3708    2.1313   -0.2138 C   0  0  0  0  0  0  0  0  0  0  0  0
   -0.9704    1.0426    0.4073 C   0  0  0  0  0  0  0  0  0  0  0  0
   -0.6257    0.7611    1.7753 C   0  0  0  0  0  0  0  0  0  0  0  0
    0.5086    1.4075    2.3456 C   0  0  0  0  0  0  0  0  0  0  0  0
    1.0730    2.4943    1.6587 C   0  0  0  0  0  0  0  0  0  0  0  0
    0.6288    2.8533    0.4176 C   0  0  0  0  0  0  0  0  0  0  0  0
   -1.2814   -0.2409    2.5592 C   0  0  0  0  0  0  0  0  0  0  0  0
   -0.5549   -0.7674    3.6321 C   0  0  0  0  0  0  0  0  0  0  0  0
    0.6431   -0.1252    4.0619 C   0  0  0  0  0  0  0  0  0  0  0  0
    1.1162    0.9926    3.4795 N   0  0  0  0  0  0  0  0  0  0  0  0
   -2.6030   -0.7611    2.3695 C   0  0  0  0  0  0  0  0  0  0  0  0
   -2.9099   -2.0158    2.9739 C   0  0  0  0  0  0  0  0  0  0  0  0
   -2.1237   -2.6085    3.9005 N   0  0  0  0  0  0  0  0  0  0  0  0
   -1.0230   -1.9406    4.2925 C   0  0  0  0  0  0  0  0  0  0  0  0
   -0.2804   -2.4294    5.3724 C   0  0  0  0  0  0  0  0  0  0  0  0
    0.8582   -1.7895    5.8022 C   0  0  0  0  0  0  0  0  0  0  0  0
    1.3220   -0.6612    5.1628 C   0  0  0  0  0  0  0  0  0  0  0  0
   -3.6607   -0.0249    1.7299 C   0  0  0  0  0  0  0  0  0  0  0  0
   -4.8564   -0.6824    1.4759 C   0  0  0  0  0  0  0  0  0  0  0  0
   -5.0798   -1.9716    1.9248 C   0  0  0  0  0  0  0  0  0  0  0  0
   -4.1424   -2.6225    2.6772 C   0  0  0  0  0  0  0  0  0  0  0  0
   -3.4853    1.3317    1.4761 O   0  0  0  0  0  0  0  0  0  0  0  0
   -1.8136    0.1586   -0.2591 O   0  0  0  0  0  0  0  0  0  0  0  0
    1.3967    4.2576   -0.4238 S   0  0  0  0  0  0  0  0  0  0  0  0
   -6.6396   -2.7940    1.5266 S   0  0  0  0  0  0  0  0  0  0  0  0
    1.8758    3.0491    2.1123 H   0  0  0  0  0  0  0  0  0  0  0  0
   -0.6507    2.4138   -1.2114 H   0  0  0  0  0  0  0  0  0  0  0  0
    2.2207   -0.1814    5.5054 H   0  0  0  0  0  0  0  0  0  0  0  0
   -0.5938   -3.3336    5.8636 H   0  0  0  0  0  0  0  0  0  0  0  0
   -4.3464   -3.6067    3.0596 H   0  0  0  0  0  0  0  0  0  0  0  0
   -5.6447   -0.2012    0.9276 H   0  0  0  0  0  0  0  0  0  0  0  0
    2.0863    4.8832    0.7709 O   0  0  0  0  0  0  0  0  0  0  0  0
    0.0113    5.2026   -0.5417 O   0  0  0  0  0  0  0  0  0  0  0  0
   -0.3927    5.7045    0.6869 C   0  0  0  0  0  0  0  0  0  0  0  0
    1.7498   -2.4694    7.2202 S   0  0  0  0  0  0  0  0  0  0  0  0
    1.3607   -3.9215    7.0490 O   0  0  0  0  0  0  0  0  0  0  0  0
    3.2693   -2.4368    6.5042 O   0  0  0  0  0  0  0  0  0  0  0  0
    3.4045   -3.4125    5.5249 C   0  0  0  0  0  0  0  0  0  0  0  0
   -7.0078   -1.9952    0.2926 O   0  0  0  0  0  0  0  0  0  0  0  0
   -5.9608   -4.1706    0.8424 O   0  0  0  0  0  0  0  0  0  0  0  0
   -5.3161   -3.8960   -0.3561 C   0  0  0  0  0  0  0  0  0  0  0  0
   -4.5496    1.9557    0.7962 C   0  0  0  0  0  0  0  0  0  0  0  0
   -2.0956    0.4877   -1.5965 C   0  0  0  0  0  0  0  0  0  0  0  0
   -4.9771   -4.8366   -0.7990 H   0  0  0  0  0  0  0  0  0  0  0  0
   -4.4581   -3.2427   -0.1745 H   0  0  0  0  0  0  0  0  0  0  0  0
   -6.0251   -3.4010   -1.0275 H   0  0  0  0  0  0  0  0  0  0  0  0
    4.4299   -3.4016    5.1453 H   0  0  0  0  0  0  0  0  0  0  0  0
    2.7052   -3.2149    4.7078 H   0  0  0  0  0  0  0  0  0  0  0  0
    3.1829   -4.3868    5.9729 H   0  0  0  0  0  0  0  0  0  0  0  0
   -2.7825   -0.2600   -1.9946 H   0  0  0  0  0  0  0  0  0  0  0  0
   -1.1760    0.4742   -2.1827 H   0  0  0  0  0  0  0  0  0  0  0  0
   -2.5714    1.4678   -1.6440 H   0  0  0  0  0  0  0  0  0  0  0  0
   -4.2693    2.9891    0.5893 H   0  0  0  0  0  0  0  0  0  0  0  0
   -5.4424    1.9499    1.4229 H   0  0  0  0  0  0  0  0  0  0  0  0
   -4.7350    1.4444   -0.1489 H   0  0  0  0  0  0  0  0  0  0  0  0
   -1.2095    6.4148    0.5322 H   0  0  0  0  0  0  0  0  0  0  0  0
    0.4571    6.2058    1.1620 H   0  0  0  0  0  0  0  0  0  0  0  0
   -0.7385    4.8813    1.3169 H   0  0  0  0  0  0  0  0  0  0  0  0
   -2.8298    1.5830    4.9690 C   0  0  0  0  0  0  0  0  0  0  0  0
   -2.3356    0.8891    6.0657 C   0  0  0  0  0  0  0  0  0  0  0  0
   -1.1322    1.3682    6.6915 C   0  0  0  0  0  0  0  0  0  0  0  0
   -0.3486    2.3521    6.0237 C   0  0  0  0  0  0  0  0  0  0  0  0
   -0.9076    3.0092    4.9171 C   0  0  0  0  0  0  0  0  0  0  0  0
   -2.1226    2.6381    4.4169 C   0  0  0  0  0  0  0  0  0  0  0  0
   -0.5878    0.7878    7.8804 C   0  0  0  0  0  0  0  0  0  0  0  0
    0.7911    0.9230    8.0665 C   0  0  0  0  0  0  0  0  0  0  0  0
    1.5262    1.8439    7.2646 C   0  0  0  0  0  0  0  0  0  0  0  0
    0.9404    2.6206    6.3328 N   0  0  0  0  0  0  0  0  0  0  0  0
   -1.2967    0.0494    8.8800 C   0  0  0  0  0  0  0  0  0  0  0  0
   -0.5417   -0.8219    9.7176 C   0  0  0  0  0  0  0  0  0  0  0  0
    0.8102   -0.8189    9.7653 N   0  0  0  0  0  0  0  0  0  0  0  0
    1.4531    0.1099    9.0315 C   0  0  0  0  0  0  0  0  0  0  0  0
    2.8405    0.2384    9.1552 C   0  0  0  0  0  0  0  0  0  0  0  0
    3.5455    1.1363    8.3871 C   0  0  0  0  0  0  0  0  0  0  0  0
    2.9098    1.9326    7.4599 C   0  0  0  0  0  0  0  0  0  0  0  0
   -2.6950    0.2429    9.1522 C   0  0  0  0  0  0  0  0  0  0  0  0
   -3.3177   -0.6396   10.0234 C   0  0  0  0  0  0  0  0  0  0  0  0
   -2.5976   -1.6037   10.7074 C   0  0  0  0  0  0  0  0  0  0  0  0
   -1.2371   -1.6836   10.5834 C   0  0  0  0  0  0  0  0  0  0  0  0
   -3.3378    1.3458    8.5987 O   0  0  0  0  0  0  0  0  0  0  0  0
   -2.8908   -0.3017    6.5238 O   0  0  0  0  0  0  0  0  0  0  0  0
   -2.7837    3.5128    2.9824 S   0  0  0  0  0  0  0  0  0  0  0  0
   -3.4744   -2.7534   11.7942 S   0  0  0  0  0  0  0  0  0  0  0  0
   -0.3526    3.7916    4.4301 H   0  0  0  0  0  0  0  0  0  0  0  0
   -3.7446    1.2799    4.4953 H   0  0  0  0  0  0  0  0  0  0  0  0
    3.4801    2.6099    6.8498 H   0  0  0  0  0  0  0  0  0  0  0  0
    3.3718   -0.3932    9.8452 H   0  0  0  0  0  0  0  0  0  0  0  0
   -0.6845   -2.4083   11.1546 H   0  0  0  0  0  0  0  0  0  0  0  0
   -4.3779   -0.5935   10.1905 H   0  0  0  0  0  0  0  0  0  0  0  0
   -1.8322    4.6867    2.9635 O   0  0  0  0  0  0  0  0  0  0  0  0
   -4.1212    4.1878    3.7386 O   0  0  0  0  0  0  0  0  0  0  0  0
   -3.7629    5.0819    4.7391 C   0  0  0  0  0  0  0  0  0  0  0  0
    5.3381    1.2525    8.5921 S   0  0  0  0  0  0  0  0  0  0  0  0
    5.5525   -0.0182    9.3862 O   0  0  0  0  0  0  0  0  0  0  0  0
    5.7374    0.7449    7.0391 O   0  0  0  0  0  0  0  0  0  0  0  0
    5.5192   -0.6122    6.8514 C   0  0  0  0  0  0  0  0  0  0  0  0
   -4.8558   -2.6339   11.1839 O   0  0  0  0  0  0  0  0  0  0  0  0
   -2.9165   -4.1651   11.0749 O   0  0  0  0  0  0  0  0  0  0  0  0
   -3.4190   -4.3369    9.7922 C   0  0  0  0  0  0  0  0  0  0  0  0
   -4.6900    1.4924    8.9556 C   0  0  0  0  0  0  0  0  0  0  0  0
   -4.0945   -0.6806    5.9075 C   0  0  0  0  0  0  0  0  0  0  0  0
   -3.0943   -5.3103    9.4138 H   0  0  0  0  0  0  0  0  0  0  0  0
   -3.0460   -3.5436    9.1384 H   0  0  0  0  0  0  0  0  0  0  0  0
   -4.5123   -4.2993    9.8385 H   0  0  0  0  0  0  0  0  0  0  0  0
    5.9005   -0.9027    5.8688 H   0  0  0  0  0  0  0  0  0  0  0  0
    4.4479   -0.8175    6.9059 H   0  0  0  0  0  0  0  0  0  0  0  0
    6.0429   -1.1665    7.6372 H   0  0  0  0  0  0  0  0  0  0  0  0
   -4.4474   -1.5981    6.3796 H   0  0  0  0  0  0  0  0  0  0  0  0
   -3.9174   -0.8706    4.8500 H   0  0  0  0  0  0  0  0  0  0  0  0
   -4.8417    0.1025    6.0408 H   0  0  0  0  0  0  0  0  0  0  0  0
   -5.0778    2.3874    8.4680 H   0  0  0  0  0  0  0  0  0  0  0  0
   -4.7765    1.6100   10.0366 H   0  0  0  0  0  0  0  0  0  0  0  0
   -5.2588    0.6269    8.6138 H   0  0  0  0  0  0  0  0  0  0  0  0
   -4.6629    5.5852    5.1030 H   0  0  0  0  0  0  0  0  0  0  0  0
   -3.0693    5.8184    4.3209 H   0  0  0  0  0  0  0  0  0  0  0  0
   -3.2850    4.5452    5.5632 H   0  0  0  0  0  0  0  0  0  0  0  0
  1  2  2  0  0  0  0
  1  6  1  0  0  0  0
  1 27  1  0  0  0  0
  2  3  1  0  0  0  0
  2 23  1  0  0  0  0
  3  4  2  0  0  0  0
  3  7  1  0  0  0  0
  4  5  1  0  0  0  0
  4 10  1  0  0  0  0
  5  6  2  0  0  0  0
  5 26  1  0  0  0  0
  6 24  1  0  0  0  0
  7  8  2  0  0  0  0
  7 11  1  0  0  0  0
  8  9  1  0  0  0  0
  8 14  1  0  0  0  0
  9 10  1  0  0  0  0
  9 17  2  0  0  0  0
 11 12  2  0  0  0  0
 11 18  1  0  0  0  0
 12 13  1  0  0  0  0
 12 21  1  0  0  0  0
 13 14  2  0  0  0  0
 14 15  1  0  0  0  0
 15 16  2  0  0  0  0
 15 29  1  0  0  0  0
 16 17  1  0  0  0  0
 16 35  1  0  0  0  0
 17 28  1  0  0  0  0
 18 19  2  0  0  0  0
 18 22  1  0  0  0  0
 19 20  1  0  0  0  0
 19 31  1  0  0  0  0
 20 21  2  0  0  0  0
 20 25  1  0  0  0  0
 21 30  1  0  0  0  0
 22 42  1  0  0  0  0
 23 43  1  0  0  0  0
 24 32  2  0  0  0  0
 24 33  1  0  0  0  0
 25 39  2  0  0  0  0
 25 40  1  0  0  0  0
 33 34  1  0  0  0  0
 34 56  1  0  0  0  0
 34 57  1  0  0  0  0
 34 58  1  0  0  0  0
 35 36  2  0  0  0  0
 35 37  1  0  0  0  0
 37 38  1  0  0  0  0
 38 47  1  0  0  0  0
 38 48  1  0  0  0  0
 38 49  1  0  0  0  0
 40 41  1  0  0  0  0
 41 44  1  0  0  0  0
 41 45  1  0  0  0  0
 41 46  1  0  0  0  0
 42 53  1  0  0  0  0
 42 54  1  0  0  0  0
 42 55  1  0  0  0  0
 43 50  1  0  0  0  0
 43 51  1  0  0  0  0
 43 52  1  0  0  0  0
 59 60  2  0  0  0  0
 59 64  1  0  0  0  0
 59 85  1  0  0  0  0
 60 61  1  0  0  0  0
 60 81  1  0  0  0  0
 61 62  2  0  0  0  0
 61 65  1  0  0  0  0
 62 63  1  0  0  0  0
 62 68  1  0  0  0  0
 63 64  2  0  0  0  0
 63 84  1  0  0  0  0
 64 82  1  0  0  0  0
 65 66  2  0  0  0  0
 65 69  1  0  0  0  0
 66 67  1  0  0  0  0
 66 72  1  0  0  0  0
 67 68  1  0  0  0  0
 67 75  2  0  0  0  0
 69 70  2  0  0  0  0
 69 76  1  0  0  0  0
 70 71  1  0  0  0  0
 70 79  1  0  0  0  0
 71 72  2  0  0  0  0
 72 73  1  0  0  0  0
 73 74  2  0  0  0  0
 73 87  1  0  0  0  0
 74 75  1  0  0  0  0
 74 93  1  0  0  0  0
 75 86  1  0  0  0  0
 76 77  2  0  0  0  0
 76 80  1  0  0  0  0
 77 78  1  0  0  0  0
 77 89  1  0  0  0  0
 78 79  2  0  0  0  0
 78 83  1  0  0  0  0
 79 88  1  0  0  0  0
 80100  1  0  0  0  0
 81101  1  0  0  0  0
 82 90  2  0  0  0  0
 82 91  1  0  0  0  0
 83 97  2  0  0  0  0
 83 98  1  0  0  0  0
 91 92  1  0  0  0  0
 92114  1  0  0  0  0
 92115  1  0  0  0  0
 92116  1  0  0  0  0
 93 94  2  0  0  0  0
 93 95  1  0  0  0  0
 95 96  1  0  0  0  0
 96105  1  0  0  0  0
 96106  1  0  0  0  0
 96107  1  0  0  0  0
 98 99  1  0  0  0  0
 99102  1  0  0  0  0
 99103  1  0  0  0  0
 99104  1  0  0  0  0
100111  1  0  0  0  0
100112  1  0  0  0  0
100113  1  0  0  0  0
101108  1  0  0  0  0
101109  1  0  0  0  0
101110  1  0  0  0  0
M  END
