 energy: -220.476629538860 gnorm: 0.000221391136 xtb: 6.7.1 (edcfbbe)
          03042512433D

116124  0     0  0            999 V2000
   -0.1076    2.0405    0.1385 C   0  0  0  0  0  0  0  0  0  0  0  0
   -0.7521    1.0095    0.7935 C   0  0  0  0  0  0  0  0  0  0  0  0
   -0.4786    0.7838    2.1679 C   0  0  0  0  0  0  0  0  0  0  0  0
    0.6802    1.4086    2.7349 C   0  0  0  0  0  0  0  0  0  0  0  0
    1.2768    2.4980    2.0575 C   0  0  0  0  0  0  0  0  0  0  0  0
    0.8442    2.8170    0.8068 C   0  0  0  0  0  0  0  0  0  0  0  0
   -1.1942   -0.1165    3.0157 C   0  0  0  0  0  0  0  0  0  0  0  0
   -0.4824   -0.6495    4.1042 C   0  0  0  0  0  0  0  0  0  0  0  0
    0.8059   -0.1300    4.4297 C   0  0  0  0  0  0  0  0  0  0  0  0
    1.2867    0.9531    3.8282 N   0  0  0  0  0  0  0  0  0  0  0  0
   -2.5499   -0.5476    2.8581 C   0  0  0  0  0  0  0  0  0  0  0  0
   -2.9226   -1.7365    3.5684 C   0  0  0  0  0  0  0  0  0  0  0  0
   -2.1727   -2.3032    4.5166 N   0  0  0  0  0  0  0  0  0  0  0  0
   -1.0205   -1.7377    4.8544 C   0  0  0  0  0  0  0  0  0  0  0  0
   -0.2578   -2.2715    5.9215 C   0  0  0  0  0  0  0  0  0  0  0  0
    1.0006   -1.7842    6.1876 C   0  0  0  0  0  0  0  0  0  0  0  0
    1.5498   -0.7457    5.4594 C   0  0  0  0  0  0  0  0  0  0  0  0
   -3.5448    0.1232    2.0968 C   0  0  0  0  0  0  0  0  0  0  0  0
   -4.7549   -0.5007    1.8675 C   0  0  0  0  0  0  0  0  0  0  0  0
   -5.0325   -1.7477    2.4268 C   0  0  0  0  0  0  0  0  0  0  0  0
   -4.1691   -2.3500    3.2931 C   0  0  0  0  0  0  0  0  0  0  0  0
   -3.2848    1.3923    1.6706 O   0  0  0  0  0  0  0  0  0  0  0  0
   -1.5722    0.1183    0.1742 O   0  0  0  0  0  0  0  0  0  0  0  0
    1.5987    4.2158   -0.1188 S   0  0  0  0  0  0  0  0  0  0  0  0
   -6.6196   -2.5675    1.9905 S   0  0  0  0  0  0  0  0  0  0  0  0
    2.0919    3.0287    2.5212 H   0  0  0  0  0  0  0  0  0  0  0  0
   -0.3230    2.2788   -0.8906 H   0  0  0  0  0  0  0  0  0  0  0  0
    2.5519   -0.3963    5.6458 H   0  0  0  0  0  0  0  0  0  0  0  0
   -0.6505   -3.0901    6.5050 H   0  0  0  0  0  0  0  0  0  0  0  0
   -4.4058   -3.2777    3.7879 H   0  0  0  0  0  0  0  0  0  0  0  0
   -5.5291   -0.0508    1.2662 H   0  0  0  0  0  0  0  0  0  0  0  0
    2.4330    4.8708    0.8671 O   0  0  0  0  0  0  0  0  0  0  0  0
    0.2004    5.0932   -0.3073 O   0  0  0  0  0  0  0  0  0  0  0  0
   -0.3109    5.7414    0.8370 C   0  0  0  0  0  0  0  0  0  0  0  0
    2.0169   -2.5610    7.5174 S   0  0  0  0  0  0  0  0  0  0  0  0
    1.1700   -3.6233    8.0133 O   0  0  0  0  0  0  0  0  0  0  0  0
    3.0762   -3.2794    6.4055 O   0  0  0  0  0  0  0  0  0  0  0  0
    2.6006   -4.3944    5.7044 C   0  0  0  0  0  0  0  0  0  0  0  0
   -7.2729   -1.5922    1.1376 O   0  0  0  0  0  0  0  0  0  0  0  0
   -5.9407   -3.7374    1.0140 O   0  0  0  0  0  0  0  0  0  0  0  0
   -5.4201   -3.3057   -0.2159 C   0  0  0  0  0  0  0  0  0  0  0  0
   -4.0738    1.9046    0.6131 C   0  0  0  0  0  0  0  0  0  0  0  0
   -1.6304    0.1356   -1.2330 C   0  0  0  0  0  0  0  0  0  0  0  0
   -5.4478   -4.1525   -0.8998 H   0  0  0  0  0  0  0  0  0  0  0  0
   -4.3883   -2.9582   -0.0973 H   0  0  0  0  0  0  0  0  0  0  0  0
   -6.0360   -2.4936   -0.6172 H   0  0  0  0  0  0  0  0  0  0  0  0
    3.4487   -5.0447    5.4904 H   0  0  0  0  0  0  0  0  0  0  0  0
    2.1230   -4.0894    4.7667 H   0  0  0  0  0  0  0  0  0  0  0  0
    1.8741   -4.9327    6.3216 H   0  0  0  0  0  0  0  0  0  0  0  0
   -2.2513   -0.7153   -1.5116 H   0  0  0  0  0  0  0  0  0  0  0  0
   -0.6347    0.0157   -1.6713 H   0  0  0  0  0  0  0  0  0  0  0  0
   -2.0839    1.0554   -1.6143 H   0  0  0  0  0  0  0  0  0  0  0  0
   -3.5741    2.8190    0.2988 H   0  0  0  0  0  0  0  0  0  0  0  0
   -5.0856    2.1508    0.9464 H   0  0  0  0  0  0  0  0  0  0  0  0
   -4.1232    1.1940   -0.2145 H   0  0  0  0  0  0  0  0  0  0  0  0
   -0.7487    6.6841    0.5103 H   0  0  0  0  0  0  0  0  0  0  0  0
    0.5029    5.9463    1.5398 H   0  0  0  0  0  0  0  0  0  0  0  0
   -1.0732    5.1234    1.3167 H   0  0  0  0  0  0  0  0  0  0  0  0
   -3.4226    1.6038    5.0258 C   0  0  0  0  0  0  0  0  0  0  0  0
   -2.7636    0.9452    6.0463 C   0  0  0  0  0  0  0  0  0  0  0  0
   -1.4890    1.4139    6.4698 C   0  0  0  0  0  0  0  0  0  0  0  0
   -0.8465    2.4545    5.7203 C   0  0  0  0  0  0  0  0  0  0  0  0
   -1.5518    3.0873    4.6714 C   0  0  0  0  0  0  0  0  0  0  0  0
   -2.8068    2.6649    4.3618 C   0  0  0  0  0  0  0  0  0  0  0  0
   -0.7365    0.8400    7.5358 C   0  0  0  0  0  0  0  0  0  0  0  0
    0.6477    1.0801    7.5320 C   0  0  0  0  0  0  0  0  0  0  0  0
    1.1901    2.1119    6.7105 C   0  0  0  0  0  0  0  0  0  0  0  0
    0.4185    2.8326    5.9063 N   0  0  0  0  0  0  0  0  0  0  0  0
   -1.2195   -0.0257    8.5663 C   0  0  0  0  0  0  0  0  0  0  0  0
   -0.2823   -0.9747    9.0808 C   0  0  0  0  0  0  0  0  0  0  0  0
    1.0359   -0.8627    8.8875 N   0  0  0  0  0  0  0  0  0  0  0  0
    1.5064    0.2351    8.2896 C   0  0  0  0  0  0  0  0  0  0  0  0
    2.8919    0.4812    8.2657 C   0  0  0  0  0  0  0  0  0  0  0  0
    3.3947    1.5153    7.4995 C   0  0  0  0  0  0  0  0  0  0  0  0
    2.5868    2.3305    6.7338 C   0  0  0  0  0  0  0  0  0  0  0  0
   -2.5209    0.0182    9.1236 C   0  0  0  0  0  0  0  0  0  0  0  0
   -2.9392   -1.0343    9.9151 C   0  0  0  0  0  0  0  0  0  0  0  0
   -2.0714   -2.0880   10.2051 C   0  0  0  0  0  0  0  0  0  0  0  0
   -0.7523   -2.0590    9.8547 C   0  0  0  0  0  0  0  0  0  0  0  0
   -3.2495    1.1344    8.8830 O   0  0  0  0  0  0  0  0  0  0  0  0
   -3.2276   -0.1859    6.6250 O   0  0  0  0  0  0  0  0  0  0  0  0
   -3.7610    3.4687    3.0412 S   0  0  0  0  0  0  0  0  0  0  0  0
   -2.7555   -3.5489   11.0910 S   0  0  0  0  0  0  0  0  0  0  0  0
   -1.0618    3.8574    4.0980 H   0  0  0  0  0  0  0  0  0  0  0  0
   -4.4048    1.2992    4.7012 H   0  0  0  0  0  0  0  0  0  0  0  0
    2.9979    3.1047    6.1073 H   0  0  0  0  0  0  0  0  0  0  0  0
    3.5528   -0.1425    8.8463 H   0  0  0  0  0  0  0  0  0  0  0  0
   -0.0539   -2.8254   10.1433 H   0  0  0  0  0  0  0  0  0  0  0  0
   -3.9384   -1.0953   10.3184 H   0  0  0  0  0  0  0  0  0  0  0  0
   -2.7757    4.2189    2.2836 O   0  0  0  0  0  0  0  0  0  0  0  0
   -4.5302    4.5566    4.0575 O   0  0  0  0  0  0  0  0  0  0  0  0
   -3.7664    5.6308    4.5382 C   0  0  0  0  0  0  0  0  0  0  0  0
    5.2276    1.6702    7.3485 S   0  0  0  0  0  0  0  0  0  0  0  0
    5.7346    1.1006    8.5793 O   0  0  0  0  0  0  0  0  0  0  0  0
    5.3654    0.5005    6.1597 O   0  0  0  0  0  0  0  0  0  0  0  0
    5.6248   -0.8238    6.5582 C   0  0  0  0  0  0  0  0  0  0  0  0
   -4.1660   -3.2200   11.2143 O   0  0  0  0  0  0  0  0  0  0  0  0
   -2.5789   -4.6070    9.8226 O   0  0  0  0  0  0  0  0  0  0  0  0
   -3.3684   -4.3801    8.6841 C   0  0  0  0  0  0  0  0  0  0  0  0
   -4.4882    1.2763    9.5397 C   0  0  0  0  0  0  0  0  0  0  0  0
   -4.5508   -0.5975    6.3716 C   0  0  0  0  0  0  0  0  0  0  0  0
   -3.4600   -5.3285    8.1569 H   0  0  0  0  0  0  0  0  0  0  0  0
   -2.9029   -3.6370    8.0284 H   0  0  0  0  0  0  0  0  0  0  0  0
   -4.3632   -4.0329    8.9849 H   0  0  0  0  0  0  0  0  0  0  0  0
    6.4124   -1.2186    5.9159 H   0  0  0  0  0  0  0  0  0  0  0  0
    4.7274   -1.4420    6.4647 H   0  0  0  0  0  0  0  0  0  0  0  0
    5.9694   -0.8367    7.5978 H   0  0  0  0  0  0  0  0  0  0  0  0
   -4.7136   -1.4569    7.0206 H   0  0  0  0  0  0  0  0  0  0  0  0
   -4.6897   -0.9060    5.3317 H   0  0  0  0  0  0  0  0  0  0  0  0
   -5.2656    0.1937    6.6173 H   0  0  0  0  0  0  0  0  0  0  0  0
   -4.8640    2.2557    9.2477 H   0  0  0  0  0  0  0  0  0  0  0  0
   -4.3669    1.2416   10.6265 H   0  0  0  0  0  0  0  0  0  0  0  0
   -5.2015    0.5058    9.2324 H   0  0  0  0  0  0  0  0  0  0  0  0
   -4.4488    6.4551    4.7425 H   0  0  0  0  0  0  0  0  0  0  0  0
   -3.0398    5.9376    3.7790 H   0  0  0  0  0  0  0  0  0  0  0  0
   -3.2357    5.3522    5.4544 H   0  0  0  0  0  0  0  0  0  0  0  0
  1  2  2  0  0  0  0
  1  6  1  0  0  0  0
  1 27  1  0  0  0  0
  2  3  1  0  0  0  0
  2 23  1  0  0  0  0
  3  4  2  0  0  0  0
  3  7  1  0  0  0  0
  4  5  1  0  0  0  0
  4 10  1  0  0  0  0
  5  6  2  0  0  0  0
  5 26  1  0  0  0  0
  6 24  1  0  0  0  0
  7  8  2  0  0  0  0
  7 11  1  0  0  0  0
  8  9  1  0  0  0  0
  8 14  1  0  0  0  0
  9 10  1  0  0  0  0
  9 17  2  0  0  0  0
 11 12  2  0  0  0  0
 11 18  1  0  0  0  0
 12 13  1  0  0  0  0
 12 21  1  0  0  0  0
 13 14  2  0  0  0  0
 14 15  1  0  0  0  0
 15 16  2  0  0  0  0
 15 29  1  0  0  0  0
 16 17  1  0  0  0  0
 16 35  1  0  0  0  0
 17 28  1  0  0  0  0
 18 19  2  0  0  0  0
 18 22  1  0  0  0  0
 19 20  1  0  0  0  0
 19 31  1  0  0  0  0
 20 21  2  0  0  0  0
 20 25  1  0  0  0  0
 21 30  1  0  0  0  0
 22 42  1  0  0  0  0
 23 43  1  0  0  0  0
 24 32  2  0  0  0  0
 24 33  1  0  0  0  0
 25 39  2  0  0  0  0
 25 40  1  0  0  0  0
 33 34  1  0  0  0  0
 34 56  1  0  0  0  0
 34 57  1  0  0  0  0
 34 58  1  0  0  0  0
 35 36  2  0  0  0  0
 35 37  1  0  0  0  0
 37 38  1  0  0  0  0
 38 47  1  0  0  0  0
 38 48  1  0  0  0  0
 38 49  1  0  0  0  0
 40 41  1  0  0  0  0
 41 44  1  0  0  0  0
 41 45  1  0  0  0  0
 41 46  1  0  0  0  0
 42 53  1  0  0  0  0
 42 54  1  0  0  0  0
 42 55  1  0  0  0  0
 43 50  1  0  0  0  0
 43 51  1  0  0  0  0
 43 52  1  0  0  0  0
 59 60  2  0  0  0  0
 59 64  1  0  0  0  0
 59 85  1  0  0  0  0
 60 61  1  0  0  0  0
 60 81  1  0  0  0  0
 61 62  2  0  0  0  0
 61 65  1  0  0  0  0
 62 63  1  0  0  0  0
 62 68  1  0  0  0  0
 63 64  2  0  0  0  0
 63 84  1  0  0  0  0
 64 82  1  0  0  0  0
 65 66  2  0  0  0  0
 65 69  1  0  0  0  0
 66 67  1  0  0  0  0
 66 72  1  0  0  0  0
 67 68  1  0  0  0  0
 67 75  2  0  0  0  0
 69 70  2  0  0  0  0
 69 76  1  0  0  0  0
 70 71  1  0  0  0  0
 70 79  1  0  0  0  0
 71 72  2  0  0  0  0
 72 73  1  0  0  0  0
 73 74  2  0  0  0  0
 73 87  1  0  0  0  0
 74 75  1  0  0  0  0
 74 93  1  0  0  0  0
 75 86  1  0  0  0  0
 76 77  2  0  0  0  0
 76 80  1  0  0  0  0
 77 78  1  0  0  0  0
 77 89  1  0  0  0  0
 78 79  2  0  0  0  0
 78 83  1  0  0  0  0
 79 88  1  0  0  0  0
 80100  1  0  0  0  0
 81101  1  0  0  0  0
 82 90  2  0  0  0  0
 82 91  1  0  0  0  0
 83 97  2  0  0  0  0
 83 98  1  0  0  0  0
 91 92  1  0  0  0  0
 92114  1  0  0  0  0
 92115  1  0  0  0  0
 92116  1  0  0  0  0
 93 94  2  0  0  0  0
 93 95  1  0  0  0  0
 95 96  1  0  0  0  0
 96105  1  0  0  0  0
 96106  1  0  0  0  0
 96107  1  0  0  0  0
 98 99  1  0  0  0  0
 99102  1  0  0  0  0
 99103  1  0  0  0  0
 99104  1  0  0  0  0
100111  1  0  0  0  0
100112  1  0  0  0  0
100113  1  0  0  0  0
101108  1  0  0  0  0
101109  1  0  0  0  0
101110  1  0  0  0  0
M  END
