 energy: -200.900274624501 gnorm: 0.000707587979 xtb: 6.7.1 (edcfbbe)
          03202511083D

101112  0     0  0            999 V2000
   -0.2763    4.5033    0.2361 C   0  0  0  0  0  0  0  0  0  0  0  0
    0.1645    3.3286    0.8248 C   0  0  0  0  0  0  0  0  0  0  0  0
    1.5502    3.0279    0.8535 C   0  0  0  0  0  0  0  0  0  0  0  0
    2.4478    4.0858    0.4616 C   0  0  0  0  0  0  0  0  0  0  0  0
    1.9593    5.2366   -0.1950 C   0  0  0  0  0  0  0  0  0  0  0  0
    0.6054    5.4340   -0.3234 C   0  0  0  0  0  0  0  0  0  0  0  0
    2.1420    1.8075    1.3341 C   0  0  0  0  0  0  0  0  0  0  0  0
    3.4826    1.9308    1.7663 C   0  0  0  0  0  0  0  0  0  0  0  0
    4.2429    3.1052    1.4803 C   0  0  0  0  0  0  0  0  0  0  0  0
    3.7501    4.0944    0.7401 N   0  0  0  0  0  0  0  0  0  0  0  0
    1.5896    0.4738    1.3552 C   0  0  0  0  0  0  0  0  0  0  0  0
    2.3572   -0.5253    2.0606 C   0  0  0  0  0  0  0  0  0  0  0  0
    3.5098   -0.2911    2.6848 N   0  0  0  0  0  0  0  0  0  0  0  0
    4.1155    0.8762    2.4866 C   0  0  0  0  0  0  0  0  0  0  0  0
    5.4223    1.0405    2.9816 C   0  0  0  0  0  0  0  0  0  0  0  0
    6.1397    2.1964    2.7018 C   0  0  0  0  0  0  0  0  0  0  0  0
    5.5676    3.2094    1.9431 C   0  0  0  0  0  0  0  0  0  0  0  0
    0.4695   -0.0055    0.6142 C   0  0  0  0  0  0  0  0  0  0  0  0
    0.2507   -1.3793    0.5007 C   0  0  0  0  0  0  0  0  0  0  0  0
    0.9958   -2.3258    1.2108 C   0  0  0  0  0  0  0  0  0  0  0  0
    1.9887   -1.8900    2.0503 C   0  0  0  0  0  0  0  0  0  0  0  0
   -0.7315    2.5385    1.4249 O   0  0  0  0  0  0  0  0  0  0  0  0
   -0.3652    0.7559   -0.0946 O   0  0  0  0  0  0  0  0  0  0  0  0
    0.0981    6.6466   -1.0040 C   0  0  0  0  0  0  0  0  0  0  0  0
    0.7514   -3.7768    1.0537 C   0  0  0  0  0  0  0  0  0  0  0  0
    7.5326    2.3748    3.1728 C   0  0  0  0  0  0  0  0  0  0  0  0
   -2.0060   -1.3191    2.1911 C   0  0  0  0  0  0  0  0  0  0  0  0
   -2.5679   -0.4391    1.2710 C   0  0  0  0  0  0  0  0  0  0  0  0
   -3.3831   -0.9267    0.2115 C   0  0  0  0  0  0  0  0  0  0  0  0
   -3.4507   -2.3616    0.0825 C   0  0  0  0  0  0  0  0  0  0  0  0
   -2.8232   -3.2216    1.0122 C   0  0  0  0  0  0  0  0  0  0  0  0
   -2.1461   -2.7069    2.0879 C   0  0  0  0  0  0  0  0  0  0  0  0
   -4.2484   -0.1479   -0.6412 C   0  0  0  0  0  0  0  0  0  0  0  0
   -5.1384   -0.8939   -1.4490 C   0  0  0  0  0  0  0  0  0  0  0  0
   -4.9666   -2.2990   -1.6288 C   0  0  0  0  0  0  0  0  0  0  0  0
   -4.1225   -2.9976   -0.8771 N   0  0  0  0  0  0  0  0  0  0  0  0
   -4.4444    1.2835   -0.6768 C   0  0  0  0  0  0  0  0  0  0  0  0
   -5.7603    1.7218   -1.0840 C   0  0  0  0  0  0  0  0  0  0  0  0
   -6.6227    0.9626   -1.7559 N   0  0  0  0  0  0  0  0  0  0  0  0
   -6.2629   -0.2768   -2.0744 C   0  0  0  0  0  0  0  0  0  0  0  0
   -7.0546   -1.0074   -2.9777 C   0  0  0  0  0  0  0  0  0  0  0  0
   -6.7652   -2.3373   -3.2582 C   0  0  0  0  0  0  0  0  0  0  0  0
   -5.7441   -2.9883   -2.5790 C   0  0  0  0  0  0  0  0  0  0  0  0
   -3.4963    2.3234   -0.4483 C   0  0  0  0  0  0  0  0  0  0  0  0
   -3.9416    3.6308   -0.2910 C   0  0  0  0  0  0  0  0  0  0  0  0
   -5.2848    3.9942   -0.4332 C   0  0  0  0  0  0  0  0  0  0  0  0
   -6.1841    3.0502   -0.8650 C   0  0  0  0  0  0  0  0  0  0  0  0
   -2.3155    0.8519    1.4774 O   0  0  0  0  0  0  0  0  0  0  0  0
   -2.1753    2.1392   -0.5180 O   0  0  0  0  0  0  0  0  0  0  0  0
   -1.4868   -3.5510    3.1108 C   0  0  0  0  0  0  0  0  0  0  0  0
   -5.7382    5.3829   -0.2045 C   0  0  0  0  0  0  0  0  0  0  0  0
   -7.5995   -3.0407   -4.2585 C   0  0  0  0  0  0  0  0  0  0  0  0
   -1.4111    1.5669    0.5726 B   0  0  0  0  0  0  0  0  0  0  0  0
    8.2133    3.3507    2.9666 O   0  0  0  0  0  0  0  0  0  0  0  0
    7.9831    1.3144    3.8676 O   0  0  0  0  0  0  0  0  0  0  0  0
    9.3138    1.4117    4.3425 C   0  0  0  0  0  0  0  0  0  0  0  0
   -0.0690   -4.0449    0.0297 O   0  0  0  0  0  0  0  0  0  0  0  0
   -0.3695   -5.4122   -0.1928 C   0  0  0  0  0  0  0  0  0  0  0  0
    1.2520   -4.6412    1.7360 O   0  0  0  0  0  0  0  0  0  0  0  0
   -0.8835   -3.1238    4.0638 O   0  0  0  0  0  0  0  0  0  0  0  0
   -1.6329   -4.8657    2.8692 O   0  0  0  0  0  0  0  0  0  0  0  0
   -0.9392   -5.7320    3.7561 C   0  0  0  0  0  0  0  0  0  0  0  0
   -8.5482   -2.5605   -4.8306 O   0  0  0  0  0  0  0  0  0  0  0  0
   -7.1838   -4.3014   -4.4840 O   0  0  0  0  0  0  0  0  0  0  0  0
   -7.9325   -5.0324   -5.4383 C   0  0  0  0  0  0  0  0  0  0  0  0
   -6.8795    5.7665   -0.3100 O   0  0  0  0  0  0  0  0  0  0  0  0
   -4.7324    6.2038    0.1470 O   0  0  0  0  0  0  0  0  0  0  0  0
   -5.0925    7.5465    0.4127 C   0  0  0  0  0  0  0  0  0  0  0  0
    0.7871    7.5235   -1.4698 O   0  0  0  0  0  0  0  0  0  0  0  0
   -1.2436    6.6693   -1.0642 O   0  0  0  0  0  0  0  0  0  0  0  0
   -1.8267    7.7762   -1.7250 C   0  0  0  0  0  0  0  0  0  0  0  0
   -7.9580   -4.4998   -6.3918 H   0  0  0  0  0  0  0  0  0  0  0  0
   -8.9589   -5.1730   -5.0909 H   0  0  0  0  0  0  0  0  0  0  0  0
   -7.4328   -5.9917   -5.5487 H   0  0  0  0  0  0  0  0  0  0  0  0
   -4.1845    8.0455    0.7423 H   0  0  0  0  0  0  0  0  0  0  0  0
   -5.8583    7.5886    1.1909 H   0  0  0  0  0  0  0  0  0  0  0  0
   -5.4879    8.0229   -0.4883 H   0  0  0  0  0  0  0  0  0  0  0  0
   -2.8818    7.5391   -1.8372 H   0  0  0  0  0  0  0  0  0  0  0  0
   -1.3584    7.9284   -2.7003 H   0  0  0  0  0  0  0  0  0  0  0  0
   -1.6987    8.6851   -1.1311 H   0  0  0  0  0  0  0  0  0  0  0  0
   -1.3360   -6.7302    3.5840 H   0  0  0  0  0  0  0  0  0  0  0  0
   -1.1005   -5.4228    4.7906 H   0  0  0  0  0  0  0  0  0  0  0  0
    0.1301   -5.6962    3.5335 H   0  0  0  0  0  0  0  0  0  0  0  0
   -0.8299   -5.8450    0.6974 H   0  0  0  0  0  0  0  0  0  0  0  0
    0.5419   -5.9682   -0.4272 H   0  0  0  0  0  0  0  0  0  0  0  0
   -1.0611   -5.4343   -1.0311 H   0  0  0  0  0  0  0  0  0  0  0  0
    9.5180    0.4831    4.8699 H   0  0  0  0  0  0  0  0  0  0  0  0
    9.4170    2.2663    5.0154 H   0  0  0  0  0  0  0  0  0  0  0  0
   10.0076    1.5401    3.5083 H   0  0  0  0  0  0  0  0  0  0  0  0
   -7.8878   -0.5189   -3.4566 H   0  0  0  0  0  0  0  0  0  0  0  0
   -5.5480   -4.0357   -2.7355 H   0  0  0  0  0  0  0  0  0  0  0  0
   -7.2017    3.3106   -1.1061 H   0  0  0  0  0  0  0  0  0  0  0  0
   -2.9434   -4.2810    0.8622 H   0  0  0  0  0  0  0  0  0  0  0  0
   -3.2134    4.3940   -0.0787 H   0  0  0  0  0  0  0  0  0  0  0  0
   -1.4375   -0.9021    3.0081 H   0  0  0  0  0  0  0  0  0  0  0  0
   -1.3345    4.6900    0.2198 H   0  0  0  0  0  0  0  0  0  0  0  0
   -0.5225   -1.7021   -0.1779 H   0  0  0  0  0  0  0  0  0  0  0  0
    2.5817   -2.5814    2.6264 H   0  0  0  0  0  0  0  0  0  0  0  0
    2.6680    5.9735   -0.5364 H   0  0  0  0  0  0  0  0  0  0  0  0
    6.1331    4.0960    1.7051 H   0  0  0  0  0  0  0  0  0  0  0  0
    5.8565    0.2354    3.5502 H   0  0  0  0  0  0  0  0  0  0  0  0
  1  2  2  0  0  0  0
  1 96  1  0  0  0  0
  2  3  1  0  0  0  0
  3  4  2  0  0  0  0
  3  7  1  0  0  0  0
  4  5  1  0  0  0  0
  5  6  2  0  0  0  0
  5 99  1  0  0  0  0
  6  1  1  0  0  0  0
  6 24  1  0  0  0  0
  7  8  1  0  0  0  0
  7 11  2  0  0  0  0
  8  9  1  0  0  0  0
  9 10  2  0  0  0  0
 10  4  1  0  0  0  0
 11 12  1  0  0  0  0
 11 18  1  0  0  0  0
 12 13  2  0  0  0  0
 13 14  1  0  0  0  0
 14  8  1  0  0  0  0
 14 15  2  0  0  0  0
 15 16  1  0  0  0  0
 15101  1  0  0  0  0
 16 17  2  0  0  0  0
 16 26  1  0  0  0  0
 17  9  1  0  0  0  0
 17100  1  0  0  0  0
 18 19  2  0  0  0  0
 19 20  1  0  0  0  0
 19 97  1  0  0  0  0
 20 21  2  0  0  0  0
 20 25  1  0  0  0  0
 21 12  1  0  0  0  0
 21 98  1  0  0  0  0
 22  2  1  0  0  0  0
 23 18  1  0  0  0  0
 24 69  2  0  0  0  0
 24 70  1  0  0  0  0
 25 57  1  0  0  0  0
 25 59  2  0  0  0  0
 26 54  2  0  0  0  0
 26 55  1  0  0  0  0
 27 28  2  0  0  0  0
 27 95  1  0  0  0  0
 28 29  1  0  0  0  0
 28 48  1  0  0  0  0
 29 30  2  0  0  0  0
 29 33  1  0  0  0  0
 30 31  1  0  0  0  0
 31 32  2  0  0  0  0
 31 93  1  0  0  0  0
 32 27  1  0  0  0  0
 32 50  1  0  0  0  0
 33 37  2  0  0  0  0
 34 33  1  0  0  0  0
 34 35  1  0  0  0  0
 35 36  2  0  0  0  0
 36 30  1  0  0  0  0
 37 38  1  0  0  0  0
 37 44  1  0  0  0  0
 38 39  2  0  0  0  0
 39 40  1  0  0  0  0
 40 34  1  0  0  0  0
 40 41  2  0  0  0  0
 41 42  1  0  0  0  0
 41 90  1  0  0  0  0
 42 43  2  0  0  0  0
 42 52  1  0  0  0  0
 43 35  1  0  0  0  0
 43 91  1  0  0  0  0
 44 45  2  0  0  0  0
 44 49  1  0  0  0  0
 45 46  1  0  0  0  0
 45 94  1  0  0  0  0
 46 47  2  0  0  0  0
 46 51  1  0  0  0  0
 47 38  1  0  0  0  0
 47 92  1  0  0  0  0
 50 60  2  0  0  0  0
 50 61  1  0  0  0  0
 51 66  2  0  0  0  0
 51 67  1  0  0  0  0
 52 63  2  0  0  0  0
 52 64  1  0  0  0  0
 53 49  1  0  0  0  0
 53 22  1  0  0  0  0
 53 48  1  0  0  0  0
 53 23  1  0  0  0  0
 55 56  1  0  0  0  0
 56 87  1  0  0  0  0
 56 88  1  0  0  0  0
 56 89  1  0  0  0  0
 57 58  1  0  0  0  0
 58 84  1  0  0  0  0
 58 85  1  0  0  0  0
 58 86  1  0  0  0  0
 61 62  1  0  0  0  0
 62 81  1  0  0  0  0
 62 82  1  0  0  0  0
 62 83  1  0  0  0  0
 64 65  1  0  0  0  0
 65 72  1  0  0  0  0
 65 73  1  0  0  0  0
 65 74  1  0  0  0  0
 67 68  1  0  0  0  0
 68 75  1  0  0  0  0
 68 76  1  0  0  0  0
 68 77  1  0  0  0  0
 70 71  1  0  0  0  0
 71 78  1  0  0  0  0
 71 79  1  0  0  0  0
 71 80  1  0  0  0  0
M  CHG  1   1  -1
M  END
