 energy: -42.111007727505 gnorm: 0.000737468846 xtb: 6.7.1 (edcfbbe)
          03202511233D

202224  0     0  0            999 V2000
    0.2506    4.2138    1.7166 C   0  0  0  0  0  0  0  0  0  0  0  0
    0.3554    3.1602    2.6201 C   0  0  0  0  0  0  0  0  0  0  0  0
    1.6201    2.8790    3.2535 C   0  0  0  0  0  0  0  0  0  0  0  0
    2.5955    3.9252    3.1895 C   0  0  0  0  0  0  0  0  0  0  0  0
    2.4285    4.9766    2.2735 C   0  0  0  0  0  0  0  0  0  0  0  0
    1.2863    5.1127    1.5265 C   0  0  0  0  0  0  0  0  0  0  0  0
    1.9427    1.7115    4.0478 C   0  0  0  0  0  0  0  0  0  0  0  0
    2.9614    1.9154    5.0005 C   0  0  0  0  0  0  0  0  0  0  0  0
    3.7050    3.1323    5.0279 C   0  0  0  0  0  0  0  0  0  0  0  0
    3.6190    4.0534    4.0570 N   0  0  0  0  0  0  0  0  0  0  0  0
    1.5069    0.3434    3.8957 C   0  0  0  0  0  0  0  0  0  0  0  0
    2.0814   -0.6364    4.7684 C   0  0  0  0  0  0  0  0  0  0  0  0
    2.8557   -0.3559    5.8351 N   0  0  0  0  0  0  0  0  0  0  0  0
    3.2847    0.9046    5.9512 C   0  0  0  0  0  0  0  0  0  0  0  0
    4.1410    1.2138    7.0131 C   0  0  0  0  0  0  0  0  0  0  0  0
    4.7674    2.4399    7.0968 C   0  0  0  0  0  0  0  0  0  0  0  0
    4.5928    3.3633    6.0852 C   0  0  0  0  0  0  0  0  0  0  0  0
    0.6999   -0.1634    2.8179 C   0  0  0  0  0  0  0  0  0  0  0  0
    0.6504   -1.5332    2.5696 C   0  0  0  0  0  0  0  0  0  0  0  0
    1.2360   -2.4597    3.4142 C   0  0  0  0  0  0  0  0  0  0  0  0
    1.8959   -2.0066    4.5222 C   0  0  0  0  0  0  0  0  0  0  0  0
   -0.8276    2.5540    2.9918 O   0  0  0  0  0  0  0  0  0  0  0  0
   -0.0745    0.5918    1.9656 O   0  0  0  0  0  0  0  0  0  0  0  0
    1.0947    6.3105    0.6811 C   0  0  0  0  0  0  0  0  0  0  0  0
    1.0827   -3.9135    3.1865 C   0  0  0  0  0  0  0  0  0  0  0  0
    5.6007    2.7706    8.2709 C   0  0  0  0  0  0  0  0  0  0  0  0
   -1.8855   -1.4888    4.0354 C   0  0  0  0  0  0  0  0  0  0  0  0
   -2.5230   -0.6768    3.1134 C   0  0  0  0  0  0  0  0  0  0  0  0
   -3.4461   -1.2350    2.1716 C   0  0  0  0  0  0  0  0  0  0  0  0
   -3.5843   -2.6575    2.1757 C   0  0  0  0  0  0  0  0  0  0  0  0
   -2.8382   -3.4350    3.0823 C   0  0  0  0  0  0  0  0  0  0  0  0
   -2.0245   -2.8587    4.0236 C   0  0  0  0  0  0  0  0  0  0  0  0
   -4.3787   -0.4608    1.3965 C   0  0  0  0  0  0  0  0  0  0  0  0
   -5.4373   -1.1840    0.8190 C   0  0  0  0  0  0  0  0  0  0  0  0
   -5.3996   -2.6075    0.7697 C   0  0  0  0  0  0  0  0  0  0  0  0
   -4.4643   -3.3309    1.4044 N   0  0  0  0  0  0  0  0  0  0  0  0
   -4.4927    0.9753    1.2965 C   0  0  0  0  0  0  0  0  0  0  0  0
   -5.7914    1.5171    1.0418 C   0  0  0  0  0  0  0  0  0  0  0  0
   -6.8116    0.8019    0.5304 N   0  0  0  0  0  0  0  0  0  0  0  0
   -6.5873   -0.5043    0.3161 C   0  0  0  0  0  0  0  0  0  0  0  0
   -7.5780   -1.2450   -0.3367 C   0  0  0  0  0  0  0  0  0  0  0  0
   -7.4886   -2.6160   -0.4685 C   0  0  0  0  0  0  0  0  0  0  0  0
   -6.4209   -3.2871    0.0956 C   0  0  0  0  0  0  0  0  0  0  0  0
   -3.4085    1.9229    1.3819 C   0  0  0  0  0  0  0  0  0  0  0  0
   -3.6949    3.2636    1.6191 C   0  0  0  0  0  0  0  0  0  0  0  0
   -4.9971    3.7370    1.5989 C   0  0  0  0  0  0  0  0  0  0  0  0
   -6.0180    2.8840    1.2646 C   0  0  0  0  0  0  0  0  0  0  0  0
   -2.2081    0.6518    3.2411 O   0  0  0  0  0  0  0  0  0  0  0  0
   -2.0915    1.5764    1.1429 O   0  0  0  0  0  0  0  0  0  0  0  0
   -1.2912   -3.6289    5.0449 C   0  0  0  0  0  0  0  0  0  0  0  0
   -5.2943    5.1551    1.8781 C   0  0  0  0  0  0  0  0  0  0  0  0
   -8.5685   -3.3552   -1.1592 C   0  0  0  0  0  0  0  0  0  0  0  0
   -1.2841    1.3415    2.3348 B   0  0  0  0  0  0  0  0  0  0  0  0
    6.2319    3.8089    8.2875 O   0  0  0  0  0  0  0  0  0  0  0  0
    5.5830    1.8716    9.2978 O   0  0  0  0  0  0  0  0  0  0  0  0
    6.3619    2.3528   10.3435 C   0  0  0  0  0  0  0  0  0  0  0  0
    0.2420   -4.2704    2.1730 O   0  0  0  0  0  0  0  0  0  0  0  0
    0.1178   -5.6534    2.1379 C   0  0  0  0  0  0  0  0  0  0  0  0
    1.6713   -4.7072    3.8954 O   0  0  0  0  0  0  0  0  0  0  0  0
   -0.6253   -3.0158    5.8584 O   0  0  0  0  0  0  0  0  0  0  0  0
   -1.3910   -4.9876    5.0213 O   0  0  0  0  0  0  0  0  0  0  0  0
   -0.6063   -5.4870    6.0494 C   0  0  0  0  0  0  0  0  0  0  0  0
   -9.3603   -2.7524   -1.8572 O   0  0  0  0  0  0  0  0  0  0  0  0
   -8.6155   -4.7037   -0.9523 O   0  0  0  0  0  0  0  0  0  0  0  0
   -9.6595   -5.2468   -1.6932 C   0  0  0  0  0  0  0  0  0  0  0  0
   -6.4526    5.5141    1.9641 O   0  0  0  0  0  0  0  0  0  0  0  0
   -4.2257    5.9868    2.0361 O   0  0  0  0  0  0  0  0  0  0  0  0
   -4.6852    7.2397    2.4217 C   0  0  0  0  0  0  0  0  0  0  0  0
    1.8176    7.2746    0.8419 O   0  0  0  0  0  0  0  0  0  0  0  0
    0.0748    6.2613   -0.2228 O   0  0  0  0  0  0  0  0  0  0  0  0
    0.0287    7.4512   -0.9394 C   0  0  0  0  0  0  0  0  0  0  0  0
   -9.4720   -5.0569   -2.7531 H   0  0  0  0  0  0  0  0  0  0  0  0
  -10.5938   -4.7629   -1.3968 H   0  0  0  0  0  0  0  0  0  0  0  0
   -9.7123   -6.3213   -1.5054 H   0  0  0  0  0  0  0  0  0  0  0  0
   -3.8405    7.9293    2.4785 H   0  0  0  0  0  0  0  0  0  0  0  0
   -5.1616    7.1337    3.4026 H   0  0  0  0  0  0  0  0  0  0  0  0
   -5.4171    7.5895    1.6884 H   0  0  0  0  0  0  0  0  0  0  0  0
   -0.7819    7.3943   -1.6694 H   0  0  0  0  0  0  0  0  0  0  0  0
    0.9866    7.5924   -1.4470 H   0  0  0  0  0  0  0  0  0  0  0  0
   -0.1441    8.2767   -0.2443 H   0  0  0  0  0  0  0  0  0  0  0  0
   -0.4558   -6.5598    5.9110 H   0  0  0  0  0  0  0  0  0  0  0  0
   -1.1150   -5.2838    6.9949 H   0  0  0  0  0  0  0  0  0  0  0  0
    0.3474   -4.9482    6.0244 H   0  0  0  0  0  0  0  0  0  0  0  0
   -0.3109   -5.9861    3.0870 H   0  0  0  0  0  0  0  0  0  0  0  0
    1.1090   -6.0934    2.0035 H   0  0  0  0  0  0  0  0  0  0  0  0
   -0.5371   -5.9311    1.3092 H   0  0  0  0  0  0  0  0  0  0  0  0
    6.2886    1.6658   11.1895 H   0  0  0  0  0  0  0  0  0  0  0  0
    5.9940    3.3433   10.6253 H   0  0  0  0  0  0  0  0  0  0  0  0
    7.3975    2.4302   10.0028 H   0  0  0  0  0  0  0  0  0  0  0  0
   -8.4517   -0.7423   -0.7128 H   0  0  0  0  0  0  0  0  0  0  0  0
   -6.3924   -4.3605    0.0495 H   0  0  0  0  0  0  0  0  0  0  0  0
   -7.0153    3.2762    1.1703 H   0  0  0  0  0  0  0  0  0  0  0  0
   -2.9616   -4.5024    3.0808 H   0  0  0  0  0  0  0  0  0  0  0  0
   -2.8877    3.9515    1.7891 H   0  0  0  0  0  0  0  0  0  0  0  0
   -1.2643   -1.0235    4.7815 H   0  0  0  0  0  0  0  0  0  0  0  0
   -0.6866    4.3857    1.2206 H   0  0  0  0  0  0  0  0  0  0  0  0
    0.0729   -1.8814    1.7327 H   0  0  0  0  0  0  0  0  0  0  0  0
    2.2755   -2.7259    5.2279 H   0  0  0  0  0  0  0  0  0  0  0  0
    3.1847    5.7386    2.2124 H   0  0  0  0  0  0  0  0  0  0  0  0
    5.1191    4.3003    6.1359 H   0  0  0  0  0  0  0  0  0  0  0  0
    4.3200    0.4788    7.7768 H   0  0  0  0  0  0  0  0  0  0  0  0
    0.8868    4.1804    6.7088 C   0  0  0  0  0  0  0  0  0  0  0  0
    0.6606    3.1804    7.6584 C   0  0  0  0  0  0  0  0  0  0  0  0
    1.6216    2.9648    8.7184 C   0  0  0  0  0  0  0  0  0  0  0  0
    2.5069    4.0668    8.9630 C   0  0  0  0  0  0  0  0  0  0  0  0
    2.6568    5.0786    8.0000 C   0  0  0  0  0  0  0  0  0  0  0  0
    1.8938    5.1179    6.8632 C   0  0  0  0  0  0  0  0  0  0  0  0
    1.7117    1.8209    9.6108 C   0  0  0  0  0  0  0  0  0  0  0  0
    2.3775    2.0804   10.8284 C   0  0  0  0  0  0  0  0  0  0  0  0
    3.0001    3.3415   11.0722 C   0  0  0  0  0  0  0  0  0  0  0  0
    3.1575    4.2709   10.1222 N   0  0  0  0  0  0  0  0  0  0  0  0
    1.4191    0.4229    9.3648 C   0  0  0  0  0  0  0  0  0  0  0  0
    1.8006   -0.5312   10.3647 C   0  0  0  0  0  0  0  0  0  0  0  0
    2.1791   -0.2066   11.6169 N   0  0  0  0  0  0  0  0  0  0  0  0
    2.4833    1.0774   11.8376 C   0  0  0  0  0  0  0  0  0  0  0  0
    3.0369    1.4054   13.0810 C   0  0  0  0  0  0  0  0  0  0  0  0
    3.5642    2.6549   13.3302 C   0  0  0  0  0  0  0  0  0  0  0  0
    3.5653    3.5994   12.3262 C   0  0  0  0  0  0  0  0  0  0  0  0
    0.9619   -0.1402    8.1246 C   0  0  0  0  0  0  0  0  0  0  0  0
    1.1216   -1.4976    7.8599 C   0  0  0  0  0  0  0  0  0  0  0  0
    1.6405   -2.3768    8.7912 C   0  0  0  0  0  0  0  0  0  0  0  0
    1.8972   -1.9010   10.0506 C   0  0  0  0  0  0  0  0  0  0  0  0
   -0.5988    2.6080    7.6474 O   0  0  0  0  0  0  0  0  0  0  0  0
    0.3584    0.5503    7.1070 O   0  0  0  0  0  0  0  0  0  0  0  0
    2.0751    6.2248    5.8993 C   0  0  0  0  0  0  0  0  0  0  0  0
    2.0004   -3.7635    8.4048 C   0  0  0  0  0  0  0  0  0  0  0  0
    4.1757    2.9673   14.6385 C   0  0  0  0  0  0  0  0  0  0  0  0
   -1.8630   -1.5498    8.6132 C   0  0  0  0  0  0  0  0  0  0  0  0
   -2.4167   -0.6000    7.7633 C   0  0  0  0  0  0  0  0  0  0  0  0
   -3.3872   -1.0000    6.7743 C   0  0  0  0  0  0  0  0  0  0  0  0
   -3.7239   -2.3903    6.7456 C   0  0  0  0  0  0  0  0  0  0  0  0
   -3.0754   -3.3024    7.5964 C   0  0  0  0  0  0  0  0  0  0  0  0
   -2.1529   -2.8951    8.5217 C   0  0  0  0  0  0  0  0  0  0  0  0
   -4.1292   -0.1232    5.8975 C   0  0  0  0  0  0  0  0  0  0  0  0
   -5.2282   -0.6858    5.2257 C   0  0  0  0  0  0  0  0  0  0  0  0
   -5.4240   -2.0943    5.2316 C   0  0  0  0  0  0  0  0  0  0  0  0
   -4.6610   -2.9329    5.9429 N   0  0  0  0  0  0  0  0  0  0  0  0
   -3.9344    1.2773    5.6337 C   0  0  0  0  0  0  0  0  0  0  0  0
   -5.0128    2.0422    5.0892 C   0  0  0  0  0  0  0  0  0  0  0  0
   -6.0999    1.4821    4.5250 N   0  0  0  0  0  0  0  0  0  0  0  0
   -6.1469    0.1394    4.5066 C   0  0  0  0  0  0  0  0  0  0  0  0
   -7.1731   -0.4718    3.7765 C   0  0  0  0  0  0  0  0  0  0  0  0
   -7.3179   -1.8441    3.7416 C   0  0  0  0  0  0  0  0  0  0  0  0
   -6.4576   -2.6401    4.4670 C   0  0  0  0  0  0  0  0  0  0  0  0
   -2.6776    1.9491    5.7692 C   0  0  0  0  0  0  0  0  0  0  0  0
   -2.6406    3.3356    5.7363 C   0  0  0  0  0  0  0  0  0  0  0  0
   -3.7533    4.0907    5.4138 C   0  0  0  0  0  0  0  0  0  0  0  0
   -4.9109    3.4468    5.0477 C   0  0  0  0  0  0  0  0  0  0  0  0
   -1.9558    0.6784    8.0109 O   0  0  0  0  0  0  0  0  0  0  0  0
   -1.4910    1.2576    5.8404 O   0  0  0  0  0  0  0  0  0  0  0  0
   -1.4301   -3.8457    9.3953 C   0  0  0  0  0  0  0  0  0  0  0  0
   -3.6332    5.5640    5.4175 C   0  0  0  0  0  0  0  0  0  0  0  0
   -8.3726   -2.4697    2.9193 C   0  0  0  0  0  0  0  0  0  0  0  0
   -0.9055    1.2728    7.1668 B   0  0  0  0  0  0  0  0  0  0  0  0
    4.7134    4.0443   14.8075 O   0  0  0  0  0  0  0  0  0  0  0  0
    4.0973    1.9962   15.5939 O   0  0  0  0  0  0  0  0  0  0  0  0
    4.6974    2.4485   16.7633 C   0  0  0  0  0  0  0  0  0  0  0  0
    2.1710   -3.9792    7.0658 O   0  0  0  0  0  0  0  0  0  0  0  0
    2.7166   -5.2393    6.8375 C   0  0  0  0  0  0  0  0  0  0  0  0
    2.1758   -4.6142    9.2538 O   0  0  0  0  0  0  0  0  0  0  0  0
   -0.8767   -3.4230   10.3920 O   0  0  0  0  0  0  0  0  0  0  0  0
   -1.3943   -5.1536    9.0097 O   0  0  0  0  0  0  0  0  0  0  0  0
   -0.5928   -5.8602    9.9001 C   0  0  0  0  0  0  0  0  0  0  0  0
   -9.0745   -1.7793    2.2074 O   0  0  0  0  0  0  0  0  0  0  0  0
   -8.4738   -3.8292    3.0076 O   0  0  0  0  0  0  0  0  0  0  0  0
   -9.4132   -4.2938    2.0948 C   0  0  0  0  0  0  0  0  0  0  0  0
   -4.5942    6.2677    5.1835 O   0  0  0  0  0  0  0  0  0  0  0  0
   -2.3866    6.0395    5.7108 O   0  0  0  0  0  0  0  0  0  0  0  0
   -2.3876    7.4285    5.7150 C   0  0  0  0  0  0  0  0  0  0  0  0
    2.9892    7.0087    6.0642 O   0  0  0  0  0  0  0  0  0  0  0  0
    1.1846    6.3105    4.8697 O   0  0  0  0  0  0  0  0  0  0  0  0
    1.4887    7.4205    4.0858 C   0  0  0  0  0  0  0  0  0  0  0  0
   -8.9531   -4.2824    1.1049 H   0  0  0  0  0  0  0  0  0  0  0  0
  -10.2862   -3.6352    2.1104 H   0  0  0  0  0  0  0  0  0  0  0  0
   -9.6988   -5.3127    2.3635 H   0  0  0  0  0  0  0  0  0  0  0  0
   -1.4168    7.7775    6.0740 H   0  0  0  0  0  0  0  0  0  0  0  0
   -3.1849    7.7791    6.3752 H   0  0  0  0  0  0  0  0  0  0  0  0
   -2.5616    7.7848    4.6980 H   0  0  0  0  0  0  0  0  0  0  0  0
    0.9306    7.3604    3.1486 H   0  0  0  0  0  0  0  0  0  0  0  0
    2.5629    7.4259    3.8806 H   0  0  0  0  0  0  0  0  0  0  0  0
    1.2194    8.3263    4.6334 H   0  0  0  0  0  0  0  0  0  0  0  0
   -0.5053   -6.8961    9.5662 H   0  0  0  0  0  0  0  0  0  0  0  0
   -1.0486   -5.8162   10.8925 H   0  0  0  0  0  0  0  0  0  0  0  0
    0.3925   -5.3832    9.9291 H   0  0  0  0  0  0  0  0  0  0  0  0
    2.1084   -5.9945    7.3398 H   0  0  0  0  0  0  0  0  0  0  0  0
    3.7312   -5.2593    7.2412 H   0  0  0  0  0  0  0  0  0  0  0  0
    2.7360   -5.4157    5.7580 H   0  0  0  0  0  0  0  0  0  0  0  0
    4.6276    1.6687   17.5247 H   0  0  0  0  0  0  0  0  0  0  0  0
    4.1794    3.3515   17.0966 H   0  0  0  0  0  0  0  0  0  0  0  0
    5.7443    2.6828   16.5542 H   0  0  0  0  0  0  0  0  0  0  0  0
   -7.8535    0.1384    3.2096 H   0  0  0  0  0  0  0  0  0  0  0  0
   -6.5880   -3.7068    4.4453 H   0  0  0  0  0  0  0  0  0  0  0  0
   -5.7467    4.0285    4.7012 H   0  0  0  0  0  0  0  0  0  0  0  0
   -3.3168   -4.3468    7.5164 H   0  0  0  0  0  0  0  0  0  0  0  0
   -1.7155    3.8359    5.9425 H   0  0  0  0  0  0  0  0  0  0  0  0
   -1.1586   -1.2244    9.3571 H   0  0  0  0  0  0  0  0  0  0  0  0
    0.2207    4.2859    5.8738 H   0  0  0  0  0  0  0  0  0  0  0  0
    0.7872   -1.8790    6.9112 H   0  0  0  0  0  0  0  0  0  0  0  0
    2.2502   -2.5852   10.8018 H   0  0  0  0  0  0  0  0  0  0  0  0
    3.3760    5.8608    8.1704 H   0  0  0  0  0  0  0  0  0  0  0  0
    4.0219    4.5553   12.5120 H   0  0  0  0  0  0  0  0  0  0  0  0
    3.0907    0.6525   13.8466 H   0  0  0  0  0  0  0  0  0  0  0  0
  1  2  2  0  0  0  0
  1 96  1  0  0  0  0
  2  3  1  0  0  0  0
  3  4  2  0  0  0  0
  3  7  1  0  0  0  0
  4  5  1  0  0  0  0
  5  6  2  0  0  0  0
  5 99  1  0  0  0  0
  6  1  1  0  0  0  0
  6 24  1  0  0  0  0
  7  8  1  0  0  0  0
  7 11  2  0  0  0  0
  8  9  1  0  0  0  0
  9 10  2  0  0  0  0
 10  4  1  0  0  0  0
 11 12  1  0  0  0  0
 11 18  1  0  0  0  0
 12 13  2  0  0  0  0
 13 14  1  0  0  0  0
 14  8  1  0  0  0  0
 14 15  2  0  0  0  0
 15 16  1  0  0  0  0
 15101  1  0  0  0  0
 16 17  2  0  0  0  0
 16 26  1  0  0  0  0
 17  9  1  0  0  0  0
 17100  1  0  0  0  0
 18 19  2  0  0  0  0
 19 20  1  0  0  0  0
 19 97  1  0  0  0  0
 20 21  2  0  0  0  0
 20 25  1  0  0  0  0
 21 12  1  0  0  0  0
 21 98  1  0  0  0  0
 22  2  1  0  0  0  0
 23 18  1  0  0  0  0
 24 69  2  0  0  0  0
 24 70  1  0  0  0  0
 25 57  1  0  0  0  0
 25 59  2  0  0  0  0
 26 54  2  0  0  0  0
 26 55  1  0  0  0  0
 27 28  2  0  0  0  0
 27 95  1  0  0  0  0
 28 29  1  0  0  0  0
 28 48  1  0  0  0  0
 29 30  2  0  0  0  0
 29 33  1  0  0  0  0
 30 31  1  0  0  0  0
 31 32  2  0  0  0  0
 31 93  1  0  0  0  0
 32 27  1  0  0  0  0
 32 50  1  0  0  0  0
 33 37  2  0  0  0  0
 34 33  1  0  0  0  0
 34 35  1  0  0  0  0
 35 36  2  0  0  0  0
 36 30  1  0  0  0  0
 37 38  1  0  0  0  0
 37 44  1  0  0  0  0
 38 39  2  0  0  0  0
 39 40  1  0  0  0  0
 40 34  1  0  0  0  0
 40 41  2  0  0  0  0
 41 42  1  0  0  0  0
 41 90  1  0  0  0  0
 42 43  2  0  0  0  0
 42 52  1  0  0  0  0
 43 35  1  0  0  0  0
 43 91  1  0  0  0  0
 44 45  2  0  0  0  0
 44 49  1  0  0  0  0
 45 46  1  0  0  0  0
 45 94  1  0  0  0  0
 46 47  2  0  0  0  0
 46 51  1  0  0  0  0
 47 38  1  0  0  0  0
 47 92  1  0  0  0  0
 50 60  2  0  0  0  0
 50 61  1  0  0  0  0
 51 66  2  0  0  0  0
 51 67  1  0  0  0  0
 52 63  2  0  0  0  0
 52 64  1  0  0  0  0
 53 49  1  0  0  0  0
 53 22  1  0  0  0  0
 53 48  1  0  0  0  0
 53 23  1  0  0  0  0
 55 56  1  0  0  0  0
 56 87  1  0  0  0  0
 56 88  1  0  0  0  0
 56 89  1  0  0  0  0
 57 58  1  0  0  0  0
 58 84  1  0  0  0  0
 58 85  1  0  0  0  0
 58 86  1  0  0  0  0
 61 62  1  0  0  0  0
 62 81  1  0  0  0  0
 62 82  1  0  0  0  0
 62 83  1  0  0  0  0
 64 65  1  0  0  0  0
 65 72  1  0  0  0  0
 65 73  1  0  0  0  0
 65 74  1  0  0  0  0
 67 68  1  0  0  0  0
 68 75  1  0  0  0  0
 68 76  1  0  0  0  0
 68 77  1  0  0  0  0
 70 71  1  0  0  0  0
 71 78  1  0  0  0  0
 71 79  1  0  0  0  0
 71 80  1  0  0  0  0
102103  2  0  0  0  0
102197  1  0  0  0  0
103104  1  0  0  0  0
104105  2  0  0  0  0
104108  1  0  0  0  0
105106  1  0  0  0  0
106107  2  0  0  0  0
106200  1  0  0  0  0
107102  1  0  0  0  0
107125  1  0  0  0  0
108109  1  0  0  0  0
108112  2  0  0  0  0
109110  1  0  0  0  0
110111  2  0  0  0  0
111105  1  0  0  0  0
112113  1  0  0  0  0
112119  1  0  0  0  0
113114  2  0  0  0  0
114115  1  0  0  0  0
115109  1  0  0  0  0
115116  2  0  0  0  0
116117  1  0  0  0  0
116202  1  0  0  0  0
117118  2  0  0  0  0
117127  1  0  0  0  0
118110  1  0  0  0  0
118201  1  0  0  0  0
119120  2  0  0  0  0
120121  1  0  0  0  0
120198  1  0  0  0  0
121122  2  0  0  0  0
121126  1  0  0  0  0
122113  1  0  0  0  0
122199  1  0  0  0  0
123103  1  0  0  0  0
124119  1  0  0  0  0
125170  2  0  0  0  0
125171  1  0  0  0  0
126158  1  0  0  0  0
126160  2  0  0  0  0
127155  2  0  0  0  0
127156  1  0  0  0  0
128129  2  0  0  0  0
128196  1  0  0  0  0
129130  1  0  0  0  0
129149  1  0  0  0  0
130131  2  0  0  0  0
130134  1  0  0  0  0
131132  1  0  0  0  0
132133  2  0  0  0  0
132194  1  0  0  0  0
133128  1  0  0  0  0
133151  1  0  0  0  0
134138  2  0  0  0  0
135134  1  0  0  0  0
135136  1  0  0  0  0
136137  2  0  0  0  0
137131  1  0  0  0  0
138139  1  0  0  0  0
138145  1  0  0  0  0
139140  2  0  0  0  0
140141  1  0  0  0  0
141135  1  0  0  0  0
141142  2  0  0  0  0
142143  1  0  0  0  0
142191  1  0  0  0  0
143144  2  0  0  0  0
143153  1  0  0  0  0
144136  1  0  0  0  0
144192  1  0  0  0  0
145146  2  0  0  0  0
145150  1  0  0  0  0
146147  1  0  0  0  0
146195  1  0  0  0  0
147148  2  0  0  0  0
147152  1  0  0  0  0
148139  1  0  0  0  0
148193  1  0  0  0  0
151161  2  0  0  0  0
151162  1  0  0  0  0
152167  2  0  0  0  0
152168  1  0  0  0  0
153164  2  0  0  0  0
153165  1  0  0  0  0
154150  1  0  0  0  0
154123  1  0  0  0  0
154149  1  0  0  0  0
154124  1  0  0  0  0
156157  1  0  0  0  0
157188  1  0  0  0  0
157189  1  0  0  0  0
157190  1  0  0  0  0
158159  1  0  0  0  0
159185  1  0  0  0  0
159186  1  0  0  0  0
159187  1  0  0  0  0
162163  1  0  0  0  0
163182  1  0  0  0  0
163183  1  0  0  0  0
163184  1  0  0  0  0
165166  1  0  0  0  0
166173  1  0  0  0  0
166174  1  0  0  0  0
166175  1  0  0  0  0
168169  1  0  0  0  0
169176  1  0  0  0  0
169177  1  0  0  0  0
169178  1  0  0  0  0
171172  1  0  0  0  0
172179  1  0  0  0  0
172180  1  0  0  0  0
172181  1  0  0  0  0
M  CHG  1   8   1
M  CHG  1  53  -1
M  CHG  1 109   1
M  CHG  1 154  -1
M  END
