energy: -200.573079387769 gnorm: 0.000355339739 xtb: 6.7.1 (edcfbbe)_energy: -200.573079387769 gnorm: 0.000355339739 xtb: 6.7.1 (edcfbbe)
 OpenBabel03202511233D

202224  0  0  0  0  0  0  0  0999 V2000
   -0.1884    4.5064    0.2321 C   0  0  0  0  0  0  0  0  0  0  0  0
    0.2300    3.3088    0.7992 C   0  0  0  0  0  0  0  0  0  0  0  0
    1.6078    2.9820    0.8177 C   0  0  0  0  0  0  0  0  0  0  0  0
    2.5245    4.0439    0.4696 C   0  0  0  0  0  0  0  0  0  0  0  0
    2.0589    5.2230   -0.1588 C   0  0  0  0  0  0  0  0  0  0  0  0
    0.7102    5.4401   -0.2940 C   0  0  0  0  0  0  0  0  0  0  0  0
    2.1809    1.7363    1.2552 C   0  0  0  0  0  0  0  0  0  0  0  0
    3.5188    1.8293    1.7045 C   0  3  0  0  0  0  0  0  0  0  0  0
    4.2887    3.0107    1.4884 C   0  0  0  0  0  0  0  0  0  0  0  0
    3.8129    4.0330    0.7836 N   0  0  0  0  0  0  0  0  0  0  0  0
    1.6198    0.4083    1.2086 C   0  0  0  0  0  0  0  0  0  0  0  0
    2.3878   -0.6368    1.8499 C   0  0  0  0  0  0  0  0  0  0  0  0
    3.5388   -0.4420    2.4813 N   0  0  0  0  0  0  0  0  0  0  0  0
    4.1427    0.7352    2.3682 C   0  0  0  0  0  0  0  0  0  0  0  0
    5.4442    0.8689    2.8930 C   0  0  0  0  0  0  0  0  0  0  0  0
    6.1670    2.0349    2.6889 C   0  0  0  0  0  0  0  0  0  0  0  0
    5.6078    3.0865    1.9736 C   0  0  0  0  0  0  0  0  0  0  0  0
    0.4907   -0.0239    0.4535 C   0  0  0  0  0  0  0  0  0  0  0  0
    0.2722   -1.3917    0.2574 C   0  0  0  0  0  0  0  0  0  0  0  0
    1.0247   -2.3822    0.8958 C   0  0  0  0  0  0  0  0  0  0  0  0
    2.0218   -2.0014    1.7548 C   0  0  0  0  0  0  0  0  0  0  0  0
   -0.6745    2.5239    1.3868 O   0  0  0  0  0  0  0  0  0  0  0  0
   -0.3597    0.7745   -0.1853 O   0  0  0  0  0  0  0  0  0  0  0  0
    0.2283    6.6902   -0.9431 C   0  0  0  0  0  0  0  0  0  0  0  0
    0.7727   -3.8281    0.6599 C   0  0  0  0  0  0  0  0  0  0  0  0
    7.5631    2.1907    3.1934 C   0  0  0  0  0  0  0  0  0  0  0  0
   -1.8641   -1.3800    2.0628 C   0  0  0  0  0  0  0  0  0  0  0  0
   -2.4982   -0.4612    1.2290 C   0  0  0  0  0  0  0  0  0  0  0  0
   -3.3917   -0.9073    0.2162 C   0  0  0  0  0  0  0  0  0  0  0  0
   -3.4839   -2.3394    0.0479 C   0  0  0  0  0  0  0  0  0  0  0  0
   -2.7823   -3.2378    0.8879 C   0  0  0  0  0  0  0  0  0  0  0  0
   -2.0124   -2.7635    1.9164 C   0  0  0  0  0  0  0  0  0  0  0  0
   -4.3042   -0.0926   -0.5460 C   0  0  0  0  0  0  0  0  0  0  0  0
   -5.2630   -0.8038   -1.3059 C   0  0  1  0  0  0  0  0  0  0  0  0
   -5.1353   -2.2060   -1.5262 C   0  0  0  0  0  0  0  0  0  0  0  0
   -4.2465   -2.9349   -0.8634 N   0  0  0  0  0  0  0  0  0  0  0  0
   -4.4760    1.3430   -0.5347 C   0  0  0  0  0  0  0  0  0  0  0  0
   -5.8115    1.8142   -0.8429 C   0  0  0  0  0  0  0  0  0  0  0  0
   -6.7212    1.0877   -1.4764 N   0  0  0  0  0  0  0  0  0  0  0  0
   -6.4145   -0.1535   -1.8383 C   0  0  0  0  0  0  0  0  0  0  0  0
   -7.2923   -0.8511   -2.6870 C   0  0  0  0  0  0  0  0  0  0  0  0
   -7.0582   -2.1828   -3.0098 C   0  0  0  0  0  0  0  0  0  0  0  0
   -6.0020   -2.8638   -2.4248 C   0  0  0  0  0  0  0  0  0  0  0  0
   -3.4985    2.3620   -0.3577 C   0  0  0  0  0  0  0  0  0  0  0  0
   -3.9129    3.6781   -0.1568 C   0  0  0  0  0  0  0  0  0  0  0  0
   -5.2534    4.0702   -0.2042 C   0  0  0  0  0  0  0  0  0  0  0  0
   -6.1982    3.1489   -0.5794 C   0  0  0  0  0  0  0  0  0  0  0  0
   -2.2310    0.8188    1.4650 O   0  0  0  0  0  0  0  0  0  0  0  0
   -2.1897    2.1586   -0.5006 O   0  0  0  0  0  0  0  0  0  0  0  0
   -1.2479   -3.6432    2.8429 C   0  0  0  0  0  0  0  0  0  0  0  0
   -5.6676    5.4732    0.0676 C   0  0  0  0  0  0  0  0  0  0  0  0
   -7.9960   -2.8509   -3.9578 C   0  0  0  0  0  0  0  0  0  0  0  0
   -1.3757    1.5684    0.5448 B   0  5  1  0  0  0  0  0  0  0  0  0
    8.2329    3.1770    3.0236 O   0  0  0  0  0  0  0  0  0  0  0  0
    7.9869    1.1083    3.8513 O   0  0  0  0  0  0  0  0  0  0  0  0
    9.3125    1.1694    4.3596 C   0  0  0  0  0  0  0  0  0  0  0  0
   -0.1303   -4.0356   -0.3025 O   0  0  0  0  0  0  0  0  0  0  0  0
   -0.4316   -5.3936   -0.5942 C   0  0  0  0  0  0  0  0  0  0  0  0
    1.3310   -4.7198    1.2506 O   0  0  0  0  0  0  0  0  0  0  0  0
   -0.5088   -3.2272    3.6991 O   0  0  0  0  0  0  0  0  0  0  0  0
   -1.4617   -4.9410    2.6105 O   0  0  0  0  0  0  0  0  0  0  0  0
   -0.7010   -5.8464    3.4045 C   0  0  0  0  0  0  0  0  0  0  0  0
   -8.9544   -2.3112   -4.4483 O   0  0  0  0  0  0  0  0  0  0  0  0
   -7.6492   -4.1175   -4.2078 O   0  0  0  0  0  0  0  0  0  0  0  0
   -8.4913   -4.8229   -5.1093 C   0  0  0  0  0  0  0  0  0  0  0  0
   -6.8088    5.8592    0.0442 O   0  0  0  0  0  0  0  0  0  0  0  0
   -4.6268    6.2676    0.3463 O   0  0  0  0  0  0  0  0  0  0  0  0
   -4.9403    7.6202    0.6428 C   0  0  0  0  0  0  0  0  0  0  0  0
    0.9494    7.5480   -1.3860 O   0  0  0  0  0  0  0  0  0  0  0  0
   -1.1078    6.7524   -0.9857 O   0  0  0  0  0  0  0  0  0  0  0  0
   -1.6630    7.9032   -1.6036 C   0  0  0  0  0  0  0  0  0  0  0  0
   -8.5107   -4.3225   -6.0795 H   0  0  0  0  0  0  0  0  0  0  0  0
   -9.5099   -4.8689   -4.7189 H   0  0  0  0  0  0  0  0  0  0  0  0
   -8.0702   -5.8205   -5.2009 H   0  0  0  0  0  0  0  0  0  0  0  0
   -4.0014    8.0984    0.9091 H   0  0  0  0  0  0  0  0  0  0  0  0
   -5.6476    7.6720    1.4729 H   0  0  0  0  0  0  0  0  0  0  0  0
   -5.3886    8.1064   -0.2266 H   0  0  0  0  0  0  0  0  0  0  0  0
   -2.7289    7.7118   -1.6962 H   0  0  0  0  0  0  0  0  0  0  0  0
   -1.2115    8.0626   -2.5849 H   0  0  0  0  0  0  0  0  0  0  0  0
   -1.4827    8.7875   -0.9883 H   0  0  0  0  0  0  0  0  0  0  0  0
   -1.1489   -6.8269    3.2639 H   0  0  0  0  0  0  0  0  0  0  0  0
   -0.7358   -5.5492    4.4537 H   0  0  0  0  0  0  0  0  0  0  0  0
    0.3372   -5.8409    3.0643 H   0  0  0  0  0  0  0  0  0  0  0  0
   -0.8529   -5.8815    0.2867 H   0  0  0  0  0  0  0  0  0  0  0  0
    0.4733   -5.9257   -0.8950 H   0  0  0  0  0  0  0  0  0  0  0  0
   -1.1546   -5.3732   -1.4053 H   0  0  0  0  0  0  0  0  0  0  0  0
    9.4929    0.2170    4.8508 H   0  0  0  0  0  0  0  0  0  0  0  0
    9.4087    1.9932    5.0694 H   0  0  0  0  0  0  0  0  0  0  0  0
   10.0234    1.3237    3.5454 H   0  0  0  0  0  0  0  0  0  0  0  0
   -8.1527   -0.3383   -3.0881 H   0  0  0  0  0  0  0  0  0  0  0  0
   -5.8358   -3.9108   -2.6189 H   0  0  0  0  0  0  0  0  0  0  0  0
   -7.2260    3.4287   -0.7445 H   0  0  0  0  0  0  0  0  0  0  0  0
   -2.9211   -4.2905    0.7096 H   0  0  0  0  0  0  0  0  0  0  0  0
   -3.1576    4.4241    0.0234 H   0  0  0  0  0  0  0  0  0  0  0  0
   -1.2362   -0.9972    2.8535 H   0  0  0  0  0  0  0  0  0  0  0  0
   -1.2440    4.7105    0.2091 H   0  0  0  0  0  0  0  0  0  0  0  0
   -0.5092   -1.6706   -0.4321 H   0  0  0  0  0  0  0  0  0  0  0  0
    2.6148   -2.7270    2.2872 H   0  0  0  0  0  0  0  0  0  0  0  0
    2.7804    5.9617   -0.4688 H   0  0  0  0  0  0  0  0  0  0  0  0
    6.1829    3.9798    1.7840 H   0  0  0  0  0  0  0  0  0  0  0  0
    5.8661    0.0337    3.4279 H   0  0  0  0  0  0  0  0  0  0  0  0
   -0.1884    4.5064   10.2321 C   0  0  0  0  0  0  0  0  0  0  0  0
    0.2300    3.3088   10.7992 C   0  0  0  0  0  0  0  0  0  0  0  0
    1.6078    2.9820   10.8177 C   0  0  0  0  0  0  0  0  0  0  0  0
    2.5245    4.0439   10.4696 C   0  0  0  0  0  0  0  0  0  0  0  0
    2.0589    5.2230    9.8412 C   0  0  0  0  0  0  0  0  0  0  0  0
    0.7102    5.4401    9.7060 C   0  0  0  0  0  0  0  0  0  0  0  0
    2.1809    1.7363   11.2552 C   0  0  0  0  0  0  0  0  0  0  0  0
    3.5188    1.8293   11.7045 C   0  3  0  0  0  0  0  0  0  0  0  0
    4.2887    3.0107   11.4884 C   0  0  0  0  0  0  0  0  0  0  0  0
    3.8129    4.0330   10.7836 N   0  0  0  0  0  0  0  0  0  0  0  0
    1.6198    0.4083   11.2086 C   0  0  0  0  0  0  0  0  0  0  0  0
    2.3878   -0.6368   11.8499 C   0  0  0  0  0  0  0  0  0  0  0  0
    3.5388   -0.4420   12.4813 N   0  0  0  0  0  0  0  0  0  0  0  0
    4.1427    0.7352   12.3682 C   0  0  0  0  0  0  0  0  0  0  0  0
    5.4442    0.8689   12.8930 C   0  0  0  0  0  0  0  0  0  0  0  0
    6.1670    2.0349   12.6889 C   0  0  0  0  0  0  0  0  0  0  0  0
    5.6078    3.0865   11.9736 C   0  0  0  0  0  0  0  0  0  0  0  0
    0.4907   -0.0239   10.4535 C   0  0  0  0  0  0  0  0  0  0  0  0
    0.2722   -1.3917   10.2574 C   0  0  0  0  0  0  0  0  0  0  0  0
    1.0247   -2.3822   10.8958 C   0  0  0  0  0  0  0  0  0  0  0  0
    2.0218   -2.0014   11.7548 C   0  0  0  0  0  0  0  0  0  0  0  0
   -0.6745    2.5239   11.3868 O   0  0  0  0  0  0  0  0  0  0  0  0
   -0.3597    0.7745    9.8147 O   0  0  0  0  0  0  0  0  0  0  0  0
    0.2283    6.6902    9.0569 C   0  0  0  0  0  0  0  0  0  0  0  0
    0.7727   -3.8281   10.6599 C   0  0  0  0  0  0  0  0  0  0  0  0
    7.5631    2.1907   13.1934 C   0  0  0  0  0  0  0  0  0  0  0  0
   -1.8641   -1.3800   12.0628 C   0  0  0  0  0  0  0  0  0  0  0  0
   -2.4982   -0.4612   11.2290 C   0  0  0  0  0  0  0  0  0  0  0  0
   -3.3917   -0.9073   10.2162 C   0  0  0  0  0  0  0  0  0  0  0  0
   -3.4839   -2.3394   10.0479 C   0  0  0  0  0  0  0  0  0  0  0  0
   -2.7823   -3.2378   10.8879 C   0  0  0  0  0  0  0  0  0  0  0  0
   -2.0124   -2.7635   11.9164 C   0  0  0  0  0  0  0  0  0  0  0  0
   -4.3042   -0.0926    9.4540 C   0  0  0  0  0  0  0  0  0  0  0  0
   -5.2630   -0.8038    8.6941 C   0  0  1  0  0  0  0  0  0  0  0  0
   -5.1353   -2.2060    8.4738 C   0  0  0  0  0  0  0  0  0  0  0  0
   -4.2465   -2.9349    9.1366 N   0  0  0  0  0  0  0  0  0  0  0  0
   -4.4760    1.3430    9.4653 C   0  0  0  0  0  0  0  0  0  0  0  0
   -5.8115    1.8142    9.1571 C   0  0  0  0  0  0  0  0  0  0  0  0
   -6.7212    1.0877    8.5236 N   0  0  0  0  0  0  0  0  0  0  0  0
   -6.4145   -0.1535    8.1617 C   0  0  0  0  0  0  0  0  0  0  0  0
   -7.2923   -0.8511    7.3130 C   0  0  0  0  0  0  0  0  0  0  0  0
   -7.0582   -2.1828    6.9902 C   0  0  0  0  0  0  0  0  0  0  0  0
   -6.0020   -2.8638    7.5752 C   0  0  0  0  0  0  0  0  0  0  0  0
   -3.4985    2.3620    9.6423 C   0  0  0  0  0  0  0  0  0  0  0  0
   -3.9129    3.6781    9.8432 C   0  0  0  0  0  0  0  0  0  0  0  0
   -5.2534    4.0702    9.7958 C   0  0  0  0  0  0  0  0  0  0  0  0
   -6.1982    3.1489    9.4206 C   0  0  0  0  0  0  0  0  0  0  0  0
   -2.2310    0.8188   11.4650 O   0  0  0  0  0  0  0  0  0  0  0  0
   -2.1897    2.1586    9.4994 O   0  0  0  0  0  0  0  0  0  0  0  0
   -1.2479   -3.6432   12.8429 C   0  0  0  0  0  0  0  0  0  0  0  0
   -5.6676    5.4732   10.0676 C   0  0  0  0  0  0  0  0  0  0  0  0
   -7.9960   -2.8509    6.0422 C   0  0  0  0  0  0  0  0  0  0  0  0
   -1.3757    1.5684   10.5448 B   0  5  1  0  0  0  0  0  0  0  0  0
    8.2329    3.1770   13.0236 O   0  0  0  0  0  0  0  0  0  0  0  0
    7.9869    1.1083   13.8513 O   0  0  0  0  0  0  0  0  0  0  0  0
    9.3125    1.1694   14.3596 C   0  0  0  0  0  0  0  0  0  0  0  0
   -0.1303   -4.0356    9.6975 O   0  0  0  0  0  0  0  0  0  0  0  0
   -0.4316   -5.3936    9.4058 C   0  0  0  0  0  0  0  0  0  0  0  0
    1.3310   -4.7198   11.2506 O   0  0  0  0  0  0  0  0  0  0  0  0
   -0.5088   -3.2272   13.6991 O   0  0  0  0  0  0  0  0  0  0  0  0
   -1.4617   -4.9410   12.6105 O   0  0  0  0  0  0  0  0  0  0  0  0
   -0.7010   -5.8464   13.4045 C   0  0  0  0  0  0  0  0  0  0  0  0
   -8.9544   -2.3112    5.5517 O   0  0  0  0  0  0  0  0  0  0  0  0
   -7.6492   -4.1175    5.7922 O   0  0  0  0  0  0  0  0  0  0  0  0
   -8.4913   -4.8229    4.8907 C   0  0  0  0  0  0  0  0  0  0  0  0
   -6.8088    5.8592   10.0442 O   0  0  0  0  0  0  0  0  0  0  0  0
   -4.6268    6.2676   10.3463 O   0  0  0  0  0  0  0  0  0  0  0  0
   -4.9403    7.6202   10.6428 C   0  0  0  0  0  0  0  0  0  0  0  0
    0.9494    7.5480    8.6140 O   0  0  0  0  0  0  0  0  0  0  0  0
   -1.1078    6.7524    9.0143 O   0  0  0  0  0  0  0  0  0  0  0  0
   -1.6630    7.9032    8.3964 C   0  0  0  0  0  0  0  0  0  0  0  0
   -8.5107   -4.3225    3.9205 H   0  0  0  0  0  0  0  0  0  0  0  0
   -9.5099   -4.8689    5.2811 H   0  0  0  0  0  0  0  0  0  0  0  0
   -8.0702   -5.8205    4.7991 H   0  0  0  0  0  0  0  0  0  0  0  0
   -4.0014    8.0984   10.9091 H   0  0  0  0  0  0  0  0  0  0  0  0
   -5.6476    7.6720   11.4729 H   0  0  0  0  0  0  0  0  0  0  0  0
   -5.3886    8.1064    9.7734 H   0  0  0  0  0  0  0  0  0  0  0  0
   -2.7289    7.7118    8.3038 H   0  0  0  0  0  0  0  0  0  0  0  0
   -1.2115    8.0626    7.4151 H   0  0  0  0  0  0  0  0  0  0  0  0
   -1.4827    8.7875    9.0117 H   0  0  0  0  0  0  0  0  0  0  0  0
   -1.1489   -6.8269   13.2639 H   0  0  0  0  0  0  0  0  0  0  0  0
   -0.7358   -5.5492   14.4537 H   0  0  0  0  0  0  0  0  0  0  0  0
    0.3372   -5.8409   13.0643 H   0  0  0  0  0  0  0  0  0  0  0  0
   -0.8529   -5.8815   10.2867 H   0  0  0  0  0  0  0  0  0  0  0  0
    0.4733   -5.9257    9.1050 H   0  0  0  0  0  0  0  0  0  0  0  0
   -1.1546   -5.3732    8.5947 H   0  0  0  0  0  0  0  0  0  0  0  0
    9.4929    0.2170   14.8508 H   0  0  0  0  0  0  0  0  0  0  0  0
    9.4087    1.9932   15.0694 H   0  0  0  0  0  0  0  0  0  0  0  0
   10.0234    1.3237   13.5454 H   0  0  0  0  0  0  0  0  0  0  0  0
   -8.1527   -0.3383    6.9119 H   0  0  0  0  0  0  0  0  0  0  0  0
   -5.8358   -3.9108    7.3811 H   0  0  0  0  0  0  0  0  0  0  0  0
   -7.2260    3.4287    9.2555 H   0  0  0  0  0  0  0  0  0  0  0  0
   -2.9211   -4.2905   10.7096 H   0  0  0  0  0  0  0  0  0  0  0  0
   -3.1576    4.4241   10.0234 H   0  0  0  0  0  0  0  0  0  0  0  0
   -1.2362   -0.9972   12.8535 H   0  0  0  0  0  0  0  0  0  0  0  0
   -1.2440    4.7105   10.2091 H   0  0  0  0  0  0  0  0  0  0  0  0
   -0.5092   -1.6706    9.5679 H   0  0  0  0  0  0  0  0  0  0  0  0
    2.6148   -2.7270   12.2872 H   0  0  0  0  0  0  0  0  0  0  0  0
    2.7804    5.9617    9.5312 H   0  0  0  0  0  0  0  0  0  0  0  0
    6.1829    3.9798   11.7840 H   0  0  0  0  0  0  0  0  0  0  0  0
    5.8661    0.0337   13.4279 H   0  0  0  0  0  0  0  0  0  0  0  0
  1  2  2  0  0  0  0
  1 96  1  0  0  0  0
  2  3  1  0  0  0  0
  3  4  2  0  0  0  0
  3  7  1  0  0  0  0
  4  5  1  0  0  0  0
  5  6  2  0  0  0  0
  5 99  1  0  0  0  0
  6  1  1  0  0  0  0
  6 24  1  0  0  0  0
  7  8  1  0  0  0  0
  7 11  2  0  0  0  0
  8  9  1  0  0  0  0
  9 10  2  0  0  0  0
 10  4  1  0  0  0  0
 11 12  1  0  0  0  0
 11 18  1  0  0  0  0
 12 13  2  0  0  0  0
 13 14  1  0  0  0  0
 14  8  1  0  0  0  0
 14 15  2  0  0  0  0
 15 16  1  0  0  0  0
 15101  1  0  0  0  0
 16 17  2  0  0  0  0
 16 26  1  0  0  0  0
 17  9  1  0  0  0  0
 17100  1  0  0  0  0
 18 19  2  0  0  0  0
 19 20  1  0  0  0  0
 19 97  1  0  0  0  0
 20 21  2  0  0  0  0
 20 25  1  0  0  0  0
 21 12  1  0  0  0  0
 21 98  1  0  0  0  0
 22  2  1  0  0  0  0
 23 18  1  0  0  0  0
 24 69  2  0  0  0  0
 24 70  1  0  0  0  0
 25 57  1  0  0  0  0
 25 59  2  0  0  0  0
 26 54  2  0  0  0  0
 26 55  1  0  0  0  0
 27 28  2  0  0  0  0
 27 95  1  0  0  0  0
 28 29  1  0  0  0  0
 28 48  1  0  0  0  0
 29 30  2  0  0  0  0
 29 33  1  0  0  0  0
 30 31  1  0  0  0  0
 31 32  2  0  0  0  0
 31 93  1  0  0  0  0
 32 27  1  0  0  0  0
 32 50  1  0  0  0  0
 33 37  2  0  0  0  0
 34 33  1  1  0  0  0
 34 35  1  0  0  0  0
 35 36  2  0  0  0  0
 36 30  1  0  0  0  0
 37 38  1  0  0  0  0
 37 44  1  0  0  0  0
 38 39  2  0  0  0  0
 39 40  1  0  0  0  0
 40 34  1  0  0  0  0
 40 41  2  0  0  0  0
 41 42  1  0  0  0  0
 41 90  1  0  0  0  0
 42 43  2  0  0  0  0
 42 52  1  0  0  0  0
 43 35  1  0  0  0  0
 43 91  1  0  0  0  0
 44 45  2  0  0  0  0
 44 49  1  0  0  0  0
 45 46  1  0  0  0  0
 45 94  1  0  0  0  0
 46 47  2  0  0  0  0
 46 51  1  0  0  0  0
 47 38  1  0  0  0  0
 47 92  1  0  0  0  0
 50 60  2  0  0  0  0
 50 61  1  0  0  0  0
 51 66  2  0  0  0  0
 51 67  1  0  0  0  0
 52 63  2  0  0  0  0
 52 64  1  0  0  0  0
 53 49  1  6  0  0  0
 53 22  1  0  0  0  0
 53 48  1  0  0  0  0
 53 23  1  0  0  0  0
 55 56  1  0  0  0  0
 56 87  1  0  0  0  0
 56 88  1  0  0  0  0
 56 89  1  0  0  0  0
 57 58  1  0  0  0  0
 58 84  1  0  0  0  0
 58 85  1  0  0  0  0
 58 86  1  0  0  0  0
 61 62  1  0  0  0  0
 62 81  1  0  0  0  0
 62 82  1  0  0  0  0
 62 83  1  0  0  0  0
 64 65  1  0  0  0  0
 65 72  1  0  0  0  0
 65 73  1  0  0  0  0
 65 74  1  0  0  0  0
 67 68  1  0  0  0  0
 68 75  1  0  0  0  0
 68 76  1  0  0  0  0
 68 77  1  0  0  0  0
 70 71  1  0  0  0  0
 71 78  1  0  0  0  0
 71 79  1  0  0  0  0
 71 80  1  0  0  0  0
102103  2  0  0  0  0
102197  1  0  0  0  0
103104  1  0  0  0  0
104105  2  0  0  0  0
104108  1  0  0  0  0
105106  1  0  0  0  0
106107  2  0  0  0  0
106200  1  0  0  0  0
107102  1  0  0  0  0
107125  1  0  0  0  0
108109  1  0  0  0  0
108112  2  0  0  0  0
109110  1  0  0  0  0
110111  2  0  0  0  0
111105  1  0  0  0  0
112113  1  0  0  0  0
112119  1  0  0  0  0
113114  2  0  0  0  0
114115  1  0  0  0  0
115109  1  0  0  0  0
115116  2  0  0  0  0
116117  1  0  0  0  0
116202  1  0  0  0  0
117118  2  0  0  0  0
117127  1  0  0  0  0
118110  1  0  0  0  0
118201  1  0  0  0  0
119120  2  0  0  0  0
120121  1  0  0  0  0
120198  1  0  0  0  0
121122  2  0  0  0  0
121126  1  0  0  0  0
122113  1  0  0  0  0
122199  1  0  0  0  0
123103  1  0  0  0  0
124119  1  0  0  0  0
125170  2  0  0  0  0
125171  1  0  0  0  0
126158  1  0  0  0  0
126160  2  0  0  0  0
127155  2  0  0  0  0
127156  1  0  0  0  0
128129  2  0  0  0  0
128196  1  0  0  0  0
129130  1  0  0  0  0
129149  1  0  0  0  0
130131  2  0  0  0  0
130134  1  0  0  0  0
131132  1  0  0  0  0
132133  2  0  0  0  0
132194  1  0  0  0  0
133128  1  0  0  0  0
133151  1  0  0  0  0
134138  2  0  0  0  0
135134  1  1  0  0  0
135136  1  0  0  0  0
136137  2  0  0  0  0
137131  1  0  0  0  0
138139  1  0  0  0  0
138145  1  0  0  0  0
139140  2  0  0  0  0
140141  1  0  0  0  0
141135  1  0  0  0  0
141142  2  0  0  0  0
142143  1  0  0  0  0
142191  1  0  0  0  0
143144  2  0  0  0  0
143153  1  0  0  0  0
144136  1  0  0  0  0
144192  1  0  0  0  0
145146  2  0  0  0  0
145150  1  0  0  0  0
146147  1  0  0  0  0
146195  1  0  0  0  0
147148  2  0  0  0  0
147152  1  0  0  0  0
148139  1  0  0  0  0
148193  1  0  0  0  0
151161  2  0  0  0  0
151162  1  0  0  0  0
152167  2  0  0  0  0
152168  1  0  0  0  0
153164  2  0  0  0  0
153165  1  0  0  0  0
154150  1  6  0  0  0
154123  1  0  0  0  0
154149  1  0  0  0  0
154124  1  0  0  0  0
156157  1  0  0  0  0
157188  1  0  0  0  0
157189  1  0  0  0  0
157190  1  0  0  0  0
158159  1  0  0  0  0
159185  1  0  0  0  0
159186  1  0  0  0  0
159187  1  0  0  0  0
162163  1  0  0  0  0
163182  1  0  0  0  0
163183  1  0  0  0  0
163184  1  0  0  0  0
165166  1  0  0  0  0
166173  1  0  0  0  0
166174  1  0  0  0  0
166175  1  0  0  0  0
168169  1  0  0  0  0
169176  1  0  0  0  0
169177  1  0  0  0  0
169178  1  0  0  0  0
171172  1  0  0  0  0
172179  1  0  0  0  0
172180  1  0  0  0  0
172181  1  0  0  0  0
M  CHG  4   8   1  53  -1 109   1 154  -1
M  END
