 energy: -279.175997790597 gnorm: 0.000078543572 xtb: 6.7.1 (edcfbbe)
          03212515543D

 95106  0     0  0            999 V2000
    1.0764    3.6002    1.6951 C   0  0  0  0  0  0  0  0  0  0  0  0
    1.2127    2.2530    1.3401 C   0  0  0  0  0  0  0  0  0  0  0  0
    2.2136    1.8576    0.3988 C   0  0  0  0  0  0  0  0  0  0  0  0
    2.7594    2.9325   -0.4004 C   0  0  0  0  0  0  0  0  0  0  0  0
    2.5175    4.2965   -0.0839 C   0  0  0  0  0  0  0  0  0  0  0  0
    1.7560    4.5770    1.0009 C   0  0  0  0  0  0  0  0  0  0  0  0
    2.8158    0.5535    0.2421 C   0  0  0  0  0  0  0  0  0  0  0  0
    3.8338    0.4772   -0.7429 C   0  0  0  0  0  0  0  0  0  0  0  0
    4.0483    1.5444   -1.6670 C   0  0  0  0  0  0  0  0  0  0  0  0
    3.5405    2.7448   -1.4564 N   0  0  0  0  0  0  0  0  0  0  0  0
    2.6809   -0.6336    1.0741 C   0  0  0  0  0  0  0  0  0  0  0  0
    3.8629   -1.4704    1.1381 C   0  0  0  0  0  0  0  0  0  0  0  0
    4.8220   -1.4701    0.2228 N   0  0  0  0  0  0  0  0  0  0  0  0
    4.7376   -0.6254   -0.7939 C   0  0  0  0  0  0  0  0  0  0  0  0
    5.6358   -0.7650   -1.8772 C   0  0  0  0  0  0  0  0  0  0  0  0
    5.6518    0.2099   -2.8405 C   0  0  0  0  0  0  0  0  0  0  0  0
    4.9192    1.3622   -2.7721 C   0  0  0  0  0  0  0  0  0  0  0  0
    1.5574   -1.1504    1.7863 C   0  0  0  0  0  0  0  0  0  0  0  0
    1.7477   -2.1489    2.7572 C   0  0  0  0  0  0  0  0  0  0  0  0
    2.9775   -2.7319    2.9486 C   0  0  0  0  0  0  0  0  0  0  0  0
    4.0364   -2.4544    2.1494 C   0  0  0  0  0  0  0  0  0  0  0  0
    0.3638    1.4267    1.9166 O   0  0  0  0  0  0  0  0  0  0  0  0
    0.2856   -0.9050    1.5459 O   0  0  0  0  0  0  0  0  0  0  0  0
   -2.1768   -1.7376    2.5813 C   0  0  0  0  0  0  0  0  0  0  0  0
   -2.3122   -0.8193    1.5377 C   0  0  0  0  0  0  0  0  0  0  0  0
   -3.0558   -1.1600    0.3795 C   0  0  0  0  0  0  0  0  0  0  0  0
   -3.6987   -2.4487    0.3669 C   0  0  0  0  0  0  0  0  0  0  0  0
   -3.4488   -3.3961    1.3955 C   0  0  0  0  0  0  0  0  0  0  0  0
   -2.7119   -3.0009    2.4626 C   0  0  0  0  0  0  0  0  0  0  0  0
   -3.3157   -0.2801   -0.7327 C   0  0  0  0  0  0  0  0  0  0  0  0
   -4.4222   -0.6380   -1.5377 C   0  0  0  0  0  0  0  0  0  0  0  0
   -5.0148   -1.9329   -1.4251 C   0  0  0  0  0  0  0  0  0  0  0  0
   -4.5861   -2.8289   -0.5473 N   0  0  0  0  0  0  0  0  0  0  0  0
   -2.6366    0.9415   -1.0976 C   0  0  0  0  0  0  0  0  0  0  0  0
   -3.3831    1.8490   -1.9362 C   0  0  0  0  0  0  0  0  0  0  0  0
   -4.5179    1.5363   -2.5525 N   0  0  0  0  0  0  0  0  0  0  0  0
   -4.9798    0.2975   -2.4595 C   0  0  0  0  0  0  0  0  0  0  0  0
   -6.0890   -0.0738   -3.2573 C   0  0  0  0  0  0  0  0  0  0  0  0
   -6.5800   -1.3460   -3.1399 C   0  0  0  0  0  0  0  0  0  0  0  0
   -6.0916   -2.2871   -2.2749 C   0  0  0  0  0  0  0  0  0  0  0  0
   -1.2901    1.3063   -0.8010 C   0  0  0  0  0  0  0  0  0  0  0  0
   -0.8305    2.5736   -1.1612 C   0  0  0  0  0  0  0  0  0  0  0  0
   -1.6566    3.4723   -1.7984 C   0  0  0  0  0  0  0  0  0  0  0  0
   -2.9069    3.1604   -2.2093 C   0  0  0  0  0  0  0  0  0  0  0  0
   -1.7191    0.3633    1.6795 O   0  0  0  0  0  0  0  0  0  0  0  0
   -0.3935    0.4796   -0.2640 O   0  0  0  0  0  0  0  0  0  0  0  0
   -0.3251    0.3590    1.2131 B   0  0  0  0  0  0  0  0  0  0  0  0
    1.6223    6.3232    1.5795 S   0  0  0  0  0  0  0  0  0  0  0  0
   -0.0008    6.2731    1.8659 F   0  0  0  0  0  0  0  0  0  0  0  0
    1.8744    5.8474    3.1626 F   0  0  0  0  0  0  0  0  0  0  0  0
    1.5854    7.8451    2.1493 F   0  0  0  0  0  0  0  0  0  0  0  0
    3.2737    6.5301    1.4263 F   0  0  0  0  0  0  0  0  0  0  0  0
    1.4382    6.9699    0.0787 F   0  0  0  0  0  0  0  0  0  0  0  0
    3.1209   -4.0100    4.2721 S   0  0  0  0  0  0  0  0  0  0  0  0
    4.1295   -4.9669    3.3512 F   0  0  0  0  0  0  0  0  0  0  0  0
    4.4716   -3.2659    4.9139 F   0  0  0  0  0  0  0  0  0  0  0  0
    3.2861   -5.1201    5.4399 F   0  0  0  0  0  0  0  0  0  0  0  0
    2.1695   -3.1592    5.3220 F   0  0  0  0  0  0  0  0  0  0  0  0
    1.8288   -4.8696    3.7195 F   0  0  0  0  0  0  0  0  0  0  0  0
    6.7903   -0.0145   -4.2807 S   0  0  0  0  0  0  0  0  0  0  0  0
    5.6317    0.4674   -5.3684 F   0  0  0  0  0  0  0  0  0  0  0  0
    6.3303   -1.5985   -4.4902 F   0  0  0  0  0  0  0  0  0  0  0  0
    7.7817   -0.2187   -5.5441 F   0  0  0  0  0  0  0  0  0  0  0  0
    8.0484   -0.5172   -3.3172 F   0  0  0  0  0  0  0  0  0  0  0  0
    7.3520    1.5458   -4.1940 F   0  0  0  0  0  0  0  0  0  0  0  0
   -2.3920   -4.1956    3.8384 S   0  0  0  0  0  0  0  0  0  0  0  0
   -1.8912   -5.3782    2.7870 F   0  0  0  0  0  0  0  0  0  0  0  0
   -3.9420   -4.8122    3.7702 F   0  0  0  0  0  0  0  0  0  0  0  0
   -2.1253   -5.2420    5.0405 F   0  0  0  0  0  0  0  0  0  0  0  0
   -2.8904   -3.1085    4.9959 F   0  0  0  0  0  0  0  0  0  0  0  0
   -0.8318   -3.6746    4.0351 F   0  0  0  0  0  0  0  0  0  0  0  0
   -0.9725    5.1643   -2.0693 S   0  0  0  0  0  0  0  0  0  0  0  0
   -1.4507    5.1965   -3.6678 F   0  0  0  0  0  0  0  0  0  0  0  0
   -2.4036    5.8895   -1.6409 F   0  0  0  0  0  0  0  0  0  0  0  0
   -0.3763    6.6416   -2.2960 F   0  0  0  0  0  0  0  0  0  0  0  0
   -0.4362    5.2306   -0.4955 F   0  0  0  0  0  0  0  0  0  0  0  0
    0.5197    4.5793   -2.5283 F   0  0  0  0  0  0  0  0  0  0  0  0
   -8.0155   -1.8178   -4.2083 S   0  0  0  0  0  0  0  0  0  0  0  0
   -7.3369   -1.1324   -5.5628 F   0  0  0  0  0  0  0  0  0  0  0  0
   -8.8192   -0.3952   -3.8997 F   0  0  0  0  0  0  0  0  0  0  0  0
   -9.2711   -2.2305   -5.1441 F   0  0  0  0  0  0  0  0  0  0  0  0
   -8.8215   -2.5438   -2.9483 F   0  0  0  0  0  0  0  0  0  0  0  0
   -7.3394   -3.2824   -4.6109 F   0  0  0  0  0  0  0  0  0  0  0  0
   -3.8967   -4.3708    1.3199 H   0  0  0  0  0  0  0  0  0  0  0  0
   -6.5116   -3.2747   -2.2029 H   0  0  0  0  0  0  0  0  0  0  0  0
   -6.5132    0.6463   -3.9343 H   0  0  0  0  0  0  0  0  0  0  0  0
   -1.6239   -1.4403    3.4547 H   0  0  0  0  0  0  0  0  0  0  0  0
    0.1842    2.8450   -0.9380 H   0  0  0  0  0  0  0  0  0  0  0  0
    5.0075    2.1482   -3.5014 H   0  0  0  0  0  0  0  0  0  0  0  0
    0.8912   -2.4846    3.3137 H   0  0  0  0  0  0  0  0  0  0  0  0
    6.2862   -1.6210   -1.9149 H   0  0  0  0  0  0  0  0  0  0  0  0
    2.9671    5.0530   -0.7011 H   0  0  0  0  0  0  0  0  0  0  0  0
    4.9687   -2.9881    2.1910 H   0  0  0  0  0  0  0  0  0  0  0  0
   -3.5309    3.8321   -2.7710 H   0  0  0  0  0  0  0  0  0  0  0  0
    0.3815    3.8535    2.4767 H   0  0  0  0  0  0  0  0  0  0  0  0
  1  2  2  0  0  0  0
  1 95  1  0  0  0  0
  2  3  1  0  0  0  0
  3  4  2  0  0  0  0
  3  7  1  0  0  0  0
  4  5  1  0  0  0  0
  5  6  2  0  0  0  0
  5 92  1  0  0  0  0
  6 48  1  0  0  0  0
  6  1  1  0  0  0  0
  7 11  2  0  0  0  0
  8  7  1  0  0  0  0
  8  9  1  0  0  0  0
  9 10  2  0  0  0  0
 10  4  1  0  0  0  0
 11 12  1  0  0  0  0
 11 18  1  0  0  0  0
 12 13  2  0  0  0  0
 13 14  1  0  0  0  0
 14  8  1  0  0  0  0
 14 15  2  0  0  0  0
 15 16  1  0  0  0  0
 15 91  1  0  0  0  0
 16 60  1  0  0  0  0
 16 17  2  0  0  0  0
 17  9  1  0  0  0  0
 17 89  1  0  0  0  0
 18 19  3  0  0  0  0
 19 20  1  0  0  0  0
 19 90  1  0  0  0  0
 20 54  1  0  0  0  0
 20 21  2  0  0  0  0
 21 12  1  0  0  0  0
 21 93  1  0  0  0  0
 22  2  1  0  0  0  0
 23 18  1  0  0  0  0
 24 25  2  0  0  0  0
 24 87  1  0  0  0  0
 25 26  1  0  0  0  0
 25 45  1  0  0  0  0
 26 27  2  0  0  0  0
 26 30  1  0  0  0  0
 27 28  1  0  0  0  0
 28 29  2  0  0  0  0
 28 84  1  0  0  0  0
 29 66  1  0  0  0  0
 29 24  1  0  0  0  0
 30 34  2  0  0  0  0
 31 30  1  0  0  0  0
 31 32  1  0  0  0  0
 32 33  2  0  0  0  0
 33 27  1  0  0  0  0
 34 35  1  0  0  0  0
 34 41  1  0  0  0  0
 35 36  2  0  0  0  0
 36 37  1  0  0  0  0
 37 31  1  0  0  0  0
 37 38  2  0  0  0  0
 38 39  1  0  0  0  0
 38 86  1  0  0  0  0
 39 78  1  0  0  0  0
 39 40  2  0  0  0  0
 40 32  1  0  0  0  0
 40 85  1  0  0  0  0
 41 42  2  0  0  0  0
 41 46  1  0  0  0  0
 42 43  1  0  0  0  0
 42 88  1  0  0  0  0
 43 72  1  0  0  0  0
 43 44  2  0  0  0  0
 44 35  1  0  0  0  0
 44 94  1  0  0  0  0
 47 46  1  0  0  0  0
 47 22  1  0  0  0  0
 47 45  1  0  0  0  0
 47 23  1  0  0  0  0
 48 49  1  0  0  0  0
 48 50  1  0  0  0  0
 48 51  1  0  0  0  0
 48 52  1  0  0  0  0
 48 53  1  0  0  0  0
 54 55  1  0  0  0  0
 54 56  1  0  0  0  0
 54 57  1  0  0  0  0
 54 58  1  0  0  0  0
 54 59  1  0  0  0  0
 60 61  1  0  0  0  0
 60 62  1  0  0  0  0
 60 63  1  0  0  0  0
 60 64  1  0  0  0  0
 60 65  1  0  0  0  0
 66 67  1  0  0  0  0
 66 68  1  0  0  0  0
 66 69  1  0  0  0  0
 66 70  1  0  0  0  0
 66 71  1  0  0  0  0
 72 73  1  0  0  0  0
 72 74  1  0  0  0  0
 72 75  1  0  0  0  0
 72 76  1  0  0  0  0
 72 77  1  0  0  0  0
 78 79  1  0  0  0  0
 78 80  1  0  0  0  0
 78 81  1  0  0  0  0
 78 82  1  0  0  0  0
 78 83  1  0  0  0  0
M  CHG  1   1  -1
M  END
