 energy: -557.692467111806 gnorm: 0.000145548145 xtb: 6.7.1 (edcfbbe)
          03212516413D

190212  0     0  0            999 V2000
    1.7923    3.0884    0.8390 C   0  0  0  0  0  0  0  0  0  0  0  0
    1.7868    1.6901    0.9954 C   0  0  0  0  0  0  0  0  0  0  0  0
    2.7864    0.9523    0.2848 C   0  0  0  0  0  0  0  0  0  0  0  0
    3.5587    1.6558   -0.7153 C   0  0  0  0  0  0  0  0  0  0  0  0
    3.3093    3.0246   -1.0215 C   0  0  0  0  0  0  0  0  0  0  0  0
    2.5039    3.7037   -0.1686 C   0  0  0  0  0  0  0  0  0  0  0  0
    3.2999   -0.3367    0.6552 C   0  0  0  0  0  0  0  0  0  0  0  0
    4.5945   -0.6715    0.2069 C   0  0  0  0  0  0  0  0  0  0  0  0
    5.1888    0.0609   -0.8564 C   0  0  0  0  0  0  0  0  0  0  0  0
    4.6140    1.1560   -1.3386 N   0  0  0  0  0  0  0  0  0  0  0  0
    2.7544   -1.2163    1.6397 C   0  0  0  0  0  0  0  0  0  0  0  0
    3.6907   -1.9875    2.4149 C   0  0  0  0  0  0  0  0  0  0  0  0
    4.9229   -2.2401    2.0007 N   0  0  0  0  0  0  0  0  0  0  0  0
    5.3445   -1.6883    0.8682 C   0  0  0  0  0  0  0  0  0  0  0  0
    6.6288   -2.0221    0.3750 C   0  0  0  0  0  0  0  0  0  0  0  0
    7.1137   -1.3582   -0.7237 C   0  0  0  0  0  0  0  0  0  0  0  0
    6.4501   -0.3368   -1.3577 C   0  0  0  0  0  0  0  0  0  0  0  0
    1.3835   -1.3346    1.9501 C   0  0  0  0  0  0  0  0  0  0  0  0
    1.0516   -1.8182    3.2099 C   0  0  0  0  0  0  0  0  0  0  0  0
    2.0193   -2.2828    4.0780 C   0  0  0  0  0  0  0  0  0  0  0  0
    3.3082   -2.4749    3.6975 C   0  0  0  0  0  0  0  0  0  0  0  0
    0.8942    1.2029    1.8433 O   0  0  0  0  0  0  0  0  0  0  0  0
    0.4396   -0.9715    1.0798 O   0  0  0  0  0  0  0  0  0  0  0  0
   -2.1311   -1.7616    3.3236 C   0  0  0  0  0  0  0  0  0  0  0  0
   -2.1260   -0.8190    2.2858 C   0  0  0  0  0  0  0  0  0  0  0  0
   -3.0721   -1.0259    1.2310 C   0  0  0  0  0  0  0  0  0  0  0  0
   -3.7162   -2.3120    1.1385 C   0  0  0  0  0  0  0  0  0  0  0  0
   -3.3909   -3.3636    2.0405 C   0  0  0  0  0  0  0  0  0  0  0  0
   -2.6904   -3.0138    3.1447 C   0  0  0  0  0  0  0  0  0  0  0  0
   -3.6192    0.0013    0.3958 C   0  0  0  0  0  0  0  0  0  0  0  0
   -4.8706   -0.2621   -0.1969 C   0  0  0  0  0  0  0  0  0  0  0  0
   -5.3418   -1.6011   -0.2917 C   0  0  0  0  0  0  0  0  0  0  0  0
   -4.6903   -2.5999    0.2853 N   0  0  0  0  0  0  0  0  0  0  0  0
   -3.1450    1.3443    0.2679 C   0  0  0  0  0  0  0  0  0  0  0  0
   -4.1357    2.3620    0.0284 C   0  0  0  0  0  0  0  0  0  0  0  0
   -5.3457    2.0856   -0.4339 N   0  0  0  0  0  0  0  0  0  0  0  0
   -5.6881    0.8178   -0.6461 C   0  0  0  0  0  0  0  0  0  0  0  0
   -6.9432    0.5233   -1.2291 C   0  0  0  0  0  0  0  0  0  0  0  0
   -7.3233   -0.7906   -1.3648 C   0  0  0  0  0  0  0  0  0  0  0  0
   -6.5746   -1.8581   -0.9396 C   0  0  0  0  0  0  0  0  0  0  0  0
   -1.7909    1.7354    0.3151 C   0  0  0  0  0  0  0  0  0  0  0  0
   -1.4996    3.0840    0.5053 C   0  0  0  0  0  0  0  0  0  0  0  0
   -2.5200    4.0147    0.6304 C   0  0  0  0  0  0  0  0  0  0  0  0
   -3.8098    3.7183    0.3128 C   0  0  0  0  0  0  0  0  0  0  0  0
   -1.2730    0.1946    2.4063 O   0  0  0  0  0  0  0  0  0  0  0  0
   -0.8205    0.8270    0.1580 O   0  0  0  0  0  0  0  0  0  0  0  0
   -0.1897    0.3186    1.3563 B   0  0  0  0  0  0  0  0  0  0  0  0
    2.2182    5.5126   -0.3913 S   0  0  0  0  0  0  0  0  0  0  0  0
    2.0819    5.8134    1.2041 F   0  0  0  0  0  0  0  0  0  0  0  0
    3.8321    5.8665   -0.3240 F   0  0  0  0  0  0  0  0  0  0  0  0
    1.9276    7.0732   -0.6497 F   0  0  0  0  0  0  0  0  0  0  0  0
    2.3661    5.3676   -2.0459 F   0  0  0  0  0  0  0  0  0  0  0  0
    0.5882    5.2264   -0.5709 F   0  0  0  0  0  0  0  0  0  0  0  0
    1.5440   -2.4008    5.8840 S   0  0  0  0  0  0  0  0  0  0  0  0
    3.0961   -2.7999    6.3322 F   0  0  0  0  0  0  0  0  0  0  0  0
    1.9921   -0.7694    6.0311 F   0  0  0  0  0  0  0  0  0  0  0  0
    1.2074   -2.3331    7.4767 F   0  0  0  0  0  0  0  0  0  0  0  0
   -0.0179   -1.8563    5.6584 F   0  0  0  0  0  0  0  0  0  0  0  0
    1.1023   -3.9678    5.9076 F   0  0  0  0  0  0  0  0  0  0  0  0
    8.7893   -1.8326   -1.3533 S   0  0  0  0  0  0  0  0  0  0  0  0
    8.2585   -1.8251   -2.9194 F   0  0  0  0  0  0  0  0  0  0  0  0
    8.4308   -3.4436   -1.2407 F   0  0  0  0  0  0  0  0  0  0  0  0
   10.2366   -2.2558   -1.9082 F   0  0  0  0  0  0  0  0  0  0  0  0
    9.4232   -1.8770    0.1695 F   0  0  0  0  0  0  0  0  0  0  0  0
    9.2520   -0.2577   -1.5104 F   0  0  0  0  0  0  0  0  0  0  0  0
   -2.2416   -4.2963    4.3982 S   0  0  0  0  0  0  0  0  0  0  0  0
   -2.2591   -5.5172    3.2848 F   0  0  0  0  0  0  0  0  0  0  0  0
   -3.8357   -4.6050    4.7713 F   0  0  0  0  0  0  0  0  0  0  0  0
   -1.8254   -5.3880    5.4953 F   0  0  0  0  0  0  0  0  0  0  0  0
   -2.2244   -3.1848    5.6389 F   0  0  0  0  0  0  0  0  0  0  0  0
   -0.6257   -4.0418    4.0750 F   0  0  0  0  0  0  0  0  0  0  0  0
   -2.1183    5.6135    1.5073 S   0  0  0  0  0  0  0  0  0  0  0  0
   -3.7075    6.1161    1.4329 F   0  0  0  0  0  0  0  0  0  0  0  0
   -2.4878    4.8104    2.9294 F   0  0  0  0  0  0  0  0  0  0  0  0
   -1.8626    6.9438    2.3718 F   0  0  0  0  0  0  0  0  0  0  0  0
   -0.5313    5.2792    1.7105 F   0  0  0  0  0  0  0  0  0  0  0  0
   -1.8196    6.4705    0.1387 F   0  0  0  0  0  0  0  0  0  0  0  0
   -8.9757   -1.1415   -2.1221 S   0  0  0  0  0  0  0  0  0  0  0  0
   -8.7104   -0.0308   -3.3230 F   0  0  0  0  0  0  0  0  0  0  0  0
   -9.7080    0.0298   -1.2192 F   0  0  0  0  0  0  0  0  0  0  0  0
  -10.4020   -1.4335   -2.8028 F   0  0  0  0  0  0  0  0  0  0  0  0
   -9.3462   -2.2706   -0.9876 F   0  0  0  0  0  0  0  0  0  0  0  0
   -8.3394   -2.3250   -3.0859 F   0  0  0  0  0  0  0  0  0  0  0  0
   -3.8120   -4.3393    1.8784 H   0  0  0  0  0  0  0  0  0  0  0  0
   -6.9265   -2.8730   -1.0217 H   0  0  0  0  0  0  0  0  0  0  0  0
   -7.5861    1.3322   -1.5356 H   0  0  0  0  0  0  0  0  0  0  0  0
   -1.6425   -1.5127    4.2482 H   0  0  0  0  0  0  0  0  0  0  0  0
   -0.4738    3.3852    0.5847 H   0  0  0  0  0  0  0  0  0  0  0  0
    6.8811    0.1924   -2.1918 H   0  0  0  0  0  0  0  0  0  0  0  0
    0.0223   -1.8044    3.4910 H   0  0  0  0  0  0  0  0  0  0  0  0
    7.2080   -2.7763    0.8823 H   0  0  0  0  0  0  0  0  0  0  0  0
    3.8580    3.4894   -1.8221 H   0  0  0  0  0  0  0  0  0  0  0  0
    4.0571   -2.9470    4.3076 H   0  0  0  0  0  0  0  0  0  0  0  0
   -4.5990    4.4486    0.2783 H   0  0  0  0  0  0  0  0  0  0  0  0
    1.2345    3.6850    1.5398 H   0  0  0  0  0  0  0  0  0  0  0  0
    0.3993    4.1184   10.2964 C   0  0  0  0  0  0  0  0  0  0  0  0
    0.6845    2.9144    9.6249 C   0  0  0  0  0  0  0  0  0  0  0  0
    1.9813    2.7307    9.0594 C   0  0  0  0  0  0  0  0  0  0  0  0
    2.7060    3.9695    8.8207 C   0  0  0  0  0  0  0  0  0  0  0  0
    2.4117    5.1616    9.5383 C   0  0  0  0  0  0  0  0  0  0  0  0
    1.2775    5.1794   10.2833 C   0  0  0  0  0  0  0  0  0  0  0  0
    2.6725    1.5394    8.5880 C   0  0  0  0  0  0  0  0  0  0  0  0
    3.5827    1.7866    7.5327 C   0  0  0  0  0  0  0  0  0  0  0  0
    3.8192    3.1051    7.0355 C   0  0  0  0  0  0  0  0  0  0  0  0
    3.5660    4.1294    7.8337 N   0  0  0  0  0  0  0  0  0  0  0  0
    2.6267    0.1712    9.0560 C   0  0  0  0  0  0  0  0  0  0  0  0
    3.6253   -0.7355    8.5242 C   0  0  0  0  0  0  0  0  0  0  0  0
    4.4012   -0.4506    7.4965 N   0  0  0  0  0  0  0  0  0  0  0  0
    4.2791    0.7187    6.8967 C   0  0  0  0  0  0  0  0  0  0  0  0
    4.7880    0.9132    5.5950 C   0  0  0  0  0  0  0  0  0  0  0  0
    4.6983    2.1613    5.0333 C   0  0  0  0  0  0  0  0  0  0  0  0
    4.3273    3.2841    5.7297 C   0  0  0  0  0  0  0  0  0  0  0  0
    1.7170   -0.3968    9.9892 C   0  0  0  0  0  0  0  0  0  0  0  0
    1.8353   -1.7335   10.3791 C   0  0  0  0  0  0  0  0  0  0  0  0
    2.7762   -2.5585    9.8010 C   0  0  0  0  0  0  0  0  0  0  0  0
    3.7196   -2.0921    8.9482 C   0  0  0  0  0  0  0  0  0  0  0  0
   -0.3595    2.1267    9.4879 O   0  0  0  0  0  0  0  0  0  0  0  0
    0.6624    0.2475   10.4596 O   0  0  0  0  0  0  0  0  0  0  0  0
   -1.7319   -1.9317   10.6870 C   0  0  0  0  0  0  0  0  0  0  0  0
   -1.9995   -1.0159    9.6676 C   0  0  0  0  0  0  0  0  0  0  0  0
   -2.6547   -1.4592    8.4917 C   0  0  0  0  0  0  0  0  0  0  0  0
   -3.2706   -2.7663    8.5282 C   0  0  0  0  0  0  0  0  0  0  0  0
   -2.9145   -3.6914    9.5514 C   0  0  0  0  0  0  0  0  0  0  0  0
   -2.1332   -3.2513   10.5694 C   0  0  0  0  0  0  0  0  0  0  0  0
   -2.8651   -0.6810    7.3039 C   0  0  0  0  0  0  0  0  0  0  0  0
   -3.9557   -1.0746    6.4972 C   0  0  0  0  0  0  0  0  0  0  0  0
   -4.6222   -2.3143    6.7342 C   0  0  0  0  0  0  0  0  0  0  0  0
   -4.2291   -3.1372    7.6975 N   0  0  0  0  0  0  0  0  0  0  0  0
   -2.0429    0.3727    6.7747 C   0  0  0  0  0  0  0  0  0  0  0  0
   -2.5796    1.1287    5.6672 C   0  0  0  0  0  0  0  0  0  0  0  0
   -3.7371    0.8584    5.0797 N   0  0  0  0  0  0  0  0  0  0  0  0
   -4.3618   -0.2666    5.4003 C   0  0  0  0  0  0  0  0  0  0  0  0
   -5.4344   -0.6859    4.5814 C   0  0  0  0  0  0  0  0  0  0  0  0
   -5.9830   -1.9218    4.7958 C   0  0  0  0  0  0  0  0  0  0  0  0
   -5.6330   -2.7435    5.8393 C   0  0  0  0  0  0  0  0  0  0  0  0
   -0.6952    0.6381    7.1491 C   0  0  0  0  0  0  0  0  0  0  0  0
    0.0422    1.5629    6.4072 C   0  0  0  0  0  0  0  0  0  0  0  0
   -0.5512    2.3218    5.4264 C   0  0  0  0  0  0  0  0  0  0  0  0
   -1.8472    2.1888    5.0614 C   0  0  0  0  0  0  0  0  0  0  0  0
   -1.6905    0.2659    9.8530 O   0  0  0  0  0  0  0  0  0  0  0  0
   -0.0689    0.0695    8.1636 O   0  0  0  0  0  0  0  0  0  0  0  0
   -0.3521    0.6867    9.5026 B   0  0  0  0  0  0  0  0  0  0  0  0
    0.8287    6.7034   11.2220 S   0  0  0  0  0  0  0  0  0  0  0  0
   -0.7304    6.6698   10.6842 F   0  0  0  0  0  0  0  0  0  0  0  0
    0.3839    5.8192   12.5470 F   0  0  0  0  0  0  0  0  0  0  0  0
    0.4503    8.0247   12.0591 F   0  0  0  0  0  0  0  0  0  0  0  0
    2.3627    6.8386   11.8290 F   0  0  0  0  0  0  0  0  0  0  0  0
    1.2495    7.6910    9.9704 F   0  0  0  0  0  0  0  0  0  0  0  0
    2.4654   -4.3709    9.9538 S   0  0  0  0  0  0  0  0  0  0  0  0
    2.6273   -4.6092    8.3332 F   0  0  0  0  0  0  0  0  0  0  0  0
    4.0864   -4.7071   10.1203 F   0  0  0  0  0  0  0  0  0  0  0  0
    2.1866   -5.9470   10.0939 F   0  0  0  0  0  0  0  0  0  0  0  0
    2.3433   -4.2782   11.5959 F   0  0  0  0  0  0  0  0  0  0  0  0
    0.8361   -4.1397    9.7639 F   0  0  0  0  0  0  0  0  0  0  0  0
    4.9698    2.2582    3.2117 S   0  0  0  0  0  0  0  0  0  0  0  0
    3.9070    0.9938    2.9739 F   0  0  0  0  0  0  0  0  0  0  0  0
    6.1988    1.1253    3.2486 F   0  0  0  0  0  0  0  0  0  0  0  0
    5.1871    2.2343    1.5917 F   0  0  0  0  0  0  0  0  0  0  0  0
    6.0865    3.4651    3.3013 F   0  0  0  0  0  0  0  0  0  0  0  0
    3.7955    3.3620    2.9324 F   0  0  0  0  0  0  0  0  0  0  0  0
   -1.6746   -4.3948   11.9461 S   0  0  0  0  0  0  0  0  0  0  0  0
   -1.0800   -5.5428   10.9470 F   0  0  0  0  0  0  0  0  0  0  0  0
   -3.1505   -5.1507   11.8983 F   0  0  0  0  0  0  0  0  0  0  0  0
   -1.2998   -5.3537   13.1840 F   0  0  0  0  0  0  0  0  0  0  0  0
   -2.2977   -3.3317   13.0653 F   0  0  0  0  0  0  0  0  0  0  0  0
   -0.2052   -3.6695   12.1505 F   0  0  0  0  0  0  0  0  0  0  0  0
    0.5192    3.5558    4.5895 S   0  0  0  0  0  0  0  0  0  0  0  0
   -0.1820    3.2417    3.1267 F   0  0  0  0  0  0  0  0  0  0  0  0
   -0.5166    4.7992    4.8673 F   0  0  0  0  0  0  0  0  0  0  0  0
    1.5099    4.5907    3.8684 F   0  0  0  0  0  0  0  0  0  0  0  0
    1.3060    3.9422    6.0328 F   0  0  0  0  0  0  0  0  0  0  0  0
    1.7251    2.4010    4.3476 F   0  0  0  0  0  0  0  0  0  0  0  0
   -7.1625   -2.5281    3.5019 S   0  0  0  0  0  0  0  0  0  0  0  0
   -6.4288   -1.5827    2.3168 F   0  0  0  0  0  0  0  0  0  0  0  0
   -8.2246   -1.2919    3.7813 F   0  0  0  0  0  0  0  0  0  0  0  0
   -8.1415   -3.0385    2.3330 F   0  0  0  0  0  0  0  0  0  0  0  0
   -7.9796   -3.5058    4.5417 F   0  0  0  0  0  0  0  0  0  0  0  0
   -6.1324   -3.7585    3.0922 F   0  0  0  0  0  0  0  0  0  0  0  0
   -3.3049   -4.6934    9.5024 H   0  0  0  0  0  0  0  0  0  0  0  0
   -6.0559   -3.7254    5.9688 H   0  0  0  0  0  0  0  0  0  0  0  0
   -5.7535   -0.0388    3.7836 H   0  0  0  0  0  0  0  0  0  0  0  0
   -1.2201   -1.5807   11.5678 H   0  0  0  0  0  0  0  0  0  0  0  0
    1.0846    1.6800    6.6329 H   0  0  0  0  0  0  0  0  0  0  0  0
    4.3302    4.2686    5.2919 H   0  0  0  0  0  0  0  0  0  0  0  0
    1.1160   -2.1363   11.0717 H   0  0  0  0  0  0  0  0  0  0  0  0
    5.1567    0.0603    5.0522 H   0  0  0  0  0  0  0  0  0  0  0  0
    3.0304    6.0278    9.3819 H   0  0  0  0  0  0  0  0  0  0  0  0
    4.4366   -2.7297    8.4611 H   0  0  0  0  0  0  0  0  0  0  0  0
   -2.3133    2.7895    4.3001 H   0  0  0  0  0  0  0  0  0  0  0  0
   -0.5529    4.1933   10.7948 H   0  0  0  0  0  0  0  0  0  0  0  0
  1  2  2  0  0  0  0
  1 95  1  0  0  0  0
  2  3  1  0  0  0  0
  3  4  2  0  0  0  0
  3  7  1  0  0  0  0
  4  5  1  0  0  0  0
  5  6  2  0  0  0  0
  5 92  1  0  0  0  0
  6 48  1  0  0  0  0
  6  1  1  0  0  0  0
  7 11  2  0  0  0  0
  8  7  1  0  0  0  0
  8  9  1  0  0  0  0
  9 10  2  0  0  0  0
 10  4  1  0  0  0  0
 11 12  1  0  0  0  0
 11 18  1  0  0  0  0
 12 13  2  0  0  0  0
 13 14  1  0  0  0  0
 14  8  1  0  0  0  0
 14 15  2  0  0  0  0
 15 16  1  0  0  0  0
 15 91  1  0  0  0  0
 16 60  1  0  0  0  0
 16 17  2  0  0  0  0
 17  9  1  0  0  0  0
 17 89  1  0  0  0  0
 18 19  3  0  0  0  0
 19 20  1  0  0  0  0
 19 90  1  0  0  0  0
 20 54  1  0  0  0  0
 20 21  2  0  0  0  0
 21 12  1  0  0  0  0
 21 93  1  0  0  0  0
 22  2  1  0  0  0  0
 23 18  1  0  0  0  0
 24 25  2  0  0  0  0
 24 87  1  0  0  0  0
 25 26  1  0  0  0  0
 25 45  1  0  0  0  0
 26 27  2  0  0  0  0
 26 30  1  0  0  0  0
 27 28  1  0  0  0  0
 28 29  2  0  0  0  0
 28 84  1  0  0  0  0
 29 66  1  0  0  0  0
 29 24  1  0  0  0  0
 30 34  2  0  0  0  0
 31 30  1  0  0  0  0
 31 32  1  0  0  0  0
 32 33  2  0  0  0  0
 33 27  1  0  0  0  0
 34 35  1  0  0  0  0
 34 41  1  0  0  0  0
 35 36  2  0  0  0  0
 36 37  1  0  0  0  0
 37 31  1  0  0  0  0
 37 38  2  0  0  0  0
 38 39  1  0  0  0  0
 38 86  1  0  0  0  0
 39 78  1  0  0  0  0
 39 40  2  0  0  0  0
 40 32  1  0  0  0  0
 40 85  1  0  0  0  0
 41 42  2  0  0  0  0
 41 46  1  0  0  0  0
 42 43  1  0  0  0  0
 42 88  1  0  0  0  0
 43 72  1  0  0  0  0
 43 44  2  0  0  0  0
 44 35  1  0  0  0  0
 44 94  1  0  0  0  0
 47 46  1  0  0  0  0
 47 22  1  0  0  0  0
 47 45  1  0  0  0  0
 47 23  1  0  0  0  0
 48 49  1  0  0  0  0
 48 50  1  0  0  0  0
 48 51  1  0  0  0  0
 48 52  1  0  0  0  0
 48 53  1  0  0  0  0
 54 55  1  0  0  0  0
 54 56  1  0  0  0  0
 54 57  1  0  0  0  0
 54 58  1  0  0  0  0
 54 59  1  0  0  0  0
 60 61  1  0  0  0  0
 60 62  1  0  0  0  0
 60 63  1  0  0  0  0
 60 64  1  0  0  0  0
 60 65  1  0  0  0  0
 66 67  1  0  0  0  0
 66 68  1  0  0  0  0
 66 69  1  0  0  0  0
 66 70  1  0  0  0  0
 66 71  1  0  0  0  0
 72 73  1  0  0  0  0
 72 74  1  0  0  0  0
 72 75  1  0  0  0  0
 72 76  1  0  0  0  0
 72 77  1  0  0  0  0
 78 79  1  0  0  0  0
 78 80  1  0  0  0  0
 78 81  1  0  0  0  0
 78 82  1  0  0  0  0
 78 83  1  0  0  0  0
 96 97  2  0  0  0  0
 96190  1  0  0  0  0
 97 98  1  0  0  0  0
 98 99  2  0  0  0  0
 98102  1  0  0  0  0
 99100  1  0  0  0  0
100101  2  0  0  0  0
100187  1  0  0  0  0
101143  1  0  0  0  0
101 96  1  0  0  0  0
102106  2  0  0  0  0
103102  1  0  0  0  0
103104  1  0  0  0  0
104105  2  0  0  0  0
105 99  1  0  0  0  0
106107  1  0  0  0  0
106113  1  0  0  0  0
107108  2  0  0  0  0
108109  1  0  0  0  0
109103  1  0  0  0  0
109110  2  0  0  0  0
110111  1  0  0  0  0
110186  1  0  0  0  0
111155  1  0  0  0  0
111112  2  0  0  0  0
112104  1  0  0  0  0
112184  1  0  0  0  0
113114  3  0  0  0  0
114115  1  0  0  0  0
114185  1  0  0  0  0
115149  1  0  0  0  0
115116  2  0  0  0  0
116107  1  0  0  0  0
116188  1  0  0  0  0
117 97  1  0  0  0  0
118113  1  0  0  0  0
119120  2  0  0  0  0
119182  1  0  0  0  0
120121  1  0  0  0  0
120140  1  0  0  0  0
121122  2  0  0  0  0
121125  1  0  0  0  0
122123  1  0  0  0  0
123124  2  0  0  0  0
123179  1  0  0  0  0
124161  1  0  0  0  0
124119  1  0  0  0  0
125129  2  0  0  0  0
126125  1  0  0  0  0
126127  1  0  0  0  0
127128  2  0  0  0  0
128122  1  0  0  0  0
129130  1  0  0  0  0
129136  1  0  0  0  0
130131  2  0  0  0  0
131132  1  0  0  0  0
132126  1  0  0  0  0
132133  2  0  0  0  0
133134  1  0  0  0  0
133181  1  0  0  0  0
134173  1  0  0  0  0
134135  2  0  0  0  0
135127  1  0  0  0  0
135180  1  0  0  0  0
136137  2  0  0  0  0
136141  1  0  0  0  0
137138  1  0  0  0  0
137183  1  0  0  0  0
138167  1  0  0  0  0
138139  2  0  0  0  0
139130  1  0  0  0  0
139189  1  0  0  0  0
142141  1  0  0  0  0
142117  1  0  0  0  0
142140  1  0  0  0  0
142118  1  0  0  0  0
143144  1  0  0  0  0
143145  1  0  0  0  0
143146  1  0  0  0  0
143147  1  0  0  0  0
143148  1  0  0  0  0
149150  1  0  0  0  0
149151  1  0  0  0  0
149152  1  0  0  0  0
149153  1  0  0  0  0
149154  1  0  0  0  0
155156  1  0  0  0  0
155157  1  0  0  0  0
155158  1  0  0  0  0
155159  1  0  0  0  0
155160  1  0  0  0  0
161162  1  0  0  0  0
161163  1  0  0  0  0
161164  1  0  0  0  0
161165  1  0  0  0  0
161166  1  0  0  0  0
167168  1  0  0  0  0
167169  1  0  0  0  0
167170  1  0  0  0  0
167171  1  0  0  0  0
167172  1  0  0  0  0
173174  1  0  0  0  0
173175  1  0  0  0  0
173176  1  0  0  0  0
173177  1  0  0  0  0
173178  1  0  0  0  0
M  CHG  1  13   1
M  CHG  1  47  -1
M  CHG  1 108   1
M  CHG  1 142  -1
M  END
