 energy: -278.761241669010 gnorm: 0.000209845564 xtb: 6.7.1 (edcfbbe)
          03212515403D

 95106  0     0  0            999 V2000
    1.4444    3.5696    0.1372 C   0  0  0  0  0  0  0  0  0  0  0  0
    1.6394    2.1843    0.2501 C   0  0  0  0  0  0  0  0  0  0  0  0
    2.7033    1.5838   -0.4978 C   0  0  0  0  0  0  0  0  0  0  0  0
    3.3669    2.4111   -1.4809 C   0  0  0  0  0  0  0  0  0  0  0  0
    3.0042    3.7702   -1.6744 C   0  0  0  0  0  0  0  0  0  0  0  0
    2.1059    4.3175   -0.8209 C   0  0  0  0  0  0  0  0  0  0  0  0
    3.3128    0.3055   -0.2545 C   0  0  0  0  0  0  0  0  0  0  0  0
    4.5496    0.0475   -0.8900 C   0  0  0  0  0  0  0  0  0  0  0  0
    4.9956    0.8761   -1.9571 C   0  0  0  0  0  0  0  0  0  0  0  0
    4.3814    2.0140   -2.2380 N   0  0  0  0  0  0  0  0  0  0  0  0
    2.9130   -0.6859    0.7036 C   0  0  0  0  0  0  0  0  0  0  0  0
    3.9750   -1.4746    1.2823 C   0  0  0  0  0  0  0  0  0  0  0  0
    5.1476   -1.6464    0.6980 N   0  0  0  0  0  0  0  0  0  0  0  0
    5.3940   -1.0119   -0.4438 C   0  0  0  0  0  0  0  0  0  0  0  0
    6.5712   -1.3167   -1.1636 C   0  0  0  0  0  0  0  0  0  0  0  0
    6.8831   -0.5709   -2.2755 C   0  0  0  0  0  0  0  0  0  0  0  0
    6.1536    0.5126   -2.6906 C   0  0  0  0  0  0  0  0  0  0  0  0
    1.5909   -1.0049    1.0952 C   0  0  0  0  0  0  0  0  0  0  0  0
    1.4148   -1.7305    2.2775 C   0  0  0  0  0  0  0  0  0  0  0  0
    2.5015   -2.1799    3.0164 C   0  0  0  0  0  0  0  0  0  0  0  0
    3.7645   -2.1426    2.5199 C   0  0  0  0  0  0  0  0  0  0  0  0
    0.8247    1.5474    1.0845 O   0  0  0  0  0  0  0  0  0  0  0  0
    0.5464   -0.6848    0.3311 O   0  0  0  0  0  0  0  0  0  0  0  0
   -1.9176   -1.5480    2.5589 C   0  0  0  0  0  0  0  0  0  0  0  0
   -2.0143   -0.6994    1.4451 C   0  0  0  0  0  0  0  0  0  0  0  0
   -2.9042   -1.0673    0.3845 C   0  0  0  0  0  0  0  0  0  0  0  0
   -3.4790   -2.3933    0.4365 C   0  0  0  0  0  0  0  0  0  0  0  0
   -3.2041   -3.2804    1.5106 C   0  0  0  0  0  0  0  0  0  0  0  0
   -2.4897   -2.8080    2.5601 C   0  0  0  0  0  0  0  0  0  0  0  0
   -3.4389   -0.2030   -0.6313 C   0  0  0  0  0  0  0  0  0  0  0  0
   -4.5414   -0.6838   -1.3751 C   0  0  0  0  0  0  0  0  0  0  0  0
   -4.8873   -2.0633   -1.3364 C   0  0  0  0  0  0  0  0  0  0  0  0
   -4.3330   -2.8795   -0.4548 N   0  0  0  0  0  0  0  0  0  0  0  0
   -3.1093    1.1735   -0.8708 C   0  0  0  0  0  0  0  0  0  0  0  0
   -4.1794    2.0060   -1.3674 C   0  0  0  0  0  0  0  0  0  0  0  0
   -5.2332    1.5245   -2.0027 N   0  0  0  0  0  0  0  0  0  0  0  0
   -5.3550    0.2074   -2.1356 C   0  0  0  0  0  0  0  0  0  0  0  0
   -6.3809   -0.3126   -2.9566 C   0  0  0  0  0  0  0  0  0  0  0  0
   -6.5800   -1.6723   -2.9915 C   0  0  0  0  0  0  0  0  0  0  0  0
   -5.8873   -2.5603   -2.2105 C   0  0  0  0  0  0  0  0  0  0  0  0
   -1.8396    1.7813   -0.7244 C   0  0  0  0  0  0  0  0  0  0  0  0
   -1.7855    3.1769   -0.6549 C   0  0  0  0  0  0  0  0  0  0  0  0
   -2.9310    3.9507   -0.7882 C   0  0  0  0  0  0  0  0  0  0  0  0
   -4.1041    3.4179   -1.2162 C   0  0  0  0  0  0  0  0  0  0  0  0
   -1.2827    0.4088    1.4923 O   0  0  0  0  0  0  0  0  0  0  0  0
   -0.7213    1.0558   -0.7202 O   0  0  0  0  0  0  0  0  0  0  0  0
   -0.1582    0.5796    0.5428 B   0  0  0  0  0  0  0  0  0  0  0  0
    1.6084    6.0864   -1.0598 S   0  0  0  0  0  0  0  0  0  0  0  0
    1.1864    6.2661    0.5178 F   0  0  0  0  0  0  0  0  0  0  0  0
    3.1224    6.6532   -0.7051 F   0  0  0  0  0  0  0  0  0  0  0  0
    1.1202    7.5942   -1.2881 F   0  0  0  0  0  0  0  0  0  0  0  0
    2.0315    6.0668   -2.6620 F   0  0  0  0  0  0  0  0  0  0  0  0
    0.1022    5.5523   -1.4983 F   0  0  0  0  0  0  0  0  0  0  0  0
    2.2497   -2.7169    4.7853 S   0  0  0  0  0  0  0  0  0  0  0  0
    3.8051   -3.2729    4.9362 F   0  0  0  0  0  0  0  0  0  0  0  0
    2.7878   -1.2212    5.2734 F   0  0  0  0  0  0  0  0  0  0  0  0
    2.0529   -3.0968    6.3340 F   0  0  0  0  0  0  0  0  0  0  0  0
    0.7103   -2.1248    4.8237 F   0  0  0  0  0  0  0  0  0  0  0  0
    1.7942   -4.2404    4.3952 F   0  0  0  0  0  0  0  0  0  0  0  0
    8.3986   -1.0309   -3.2397 S   0  0  0  0  0  0  0  0  0  0  0  0
    7.5949   -0.8656   -4.6738 F   0  0  0  0  0  0  0  0  0  0  0  0
    7.9971   -2.6332   -3.1973 F   0  0  0  0  0  0  0  0  0  0  0  0
    9.7040   -1.4352   -4.0793 F   0  0  0  0  0  0  0  0  0  0  0  0
    9.2895   -1.2238   -1.8635 F   0  0  0  0  0  0  0  0  0  0  0  0
    8.8869    0.5429   -3.3395 F   0  0  0  0  0  0  0  0  0  0  0  0
   -2.1102   -3.9497    3.9692 S   0  0  0  0  0  0  0  0  0  0  0  0
   -2.2893   -5.2983    3.0225 F   0  0  0  0  0  0  0  0  0  0  0  0
   -3.7018   -4.0875    4.4021 F   0  0  0  0  0  0  0  0  0  0  0  0
   -1.7208   -4.9385    5.1671 F   0  0  0  0  0  0  0  0  0  0  0  0
   -1.9414   -2.7106    5.0348 F   0  0  0  0  0  0  0  0  0  0  0  0
   -0.5171   -3.9002    3.5165 F   0  0  0  0  0  0  0  0  0  0  0  0
   -2.9047    5.7319   -0.2336 S   0  0  0  0  0  0  0  0  0  0  0  0
   -4.4166    6.0407   -0.8417 F   0  0  0  0  0  0  0  0  0  0  0  0
   -3.6248    5.2564    1.1879 F   0  0  0  0  0  0  0  0  0  0  0  0
   -2.9136    7.2387    0.3245 F   0  0  0  0  0  0  0  0  0  0  0  0
   -1.4393    5.5586    0.5034 F   0  0  0  0  0  0  0  0  0  0  0  0
   -2.2774    6.2974   -1.6359 F   0  0  0  0  0  0  0  0  0  0  0  0
   -7.8870   -2.3356   -4.1274 S   0  0  0  0  0  0  0  0  0  0  0  0
   -7.3678   -1.3715   -5.3648 F   0  0  0  0  0  0  0  0  0  0  0  0
   -8.9602   -1.1661   -3.6743 F   0  0  0  0  0  0  0  0  0  0  0  0
   -9.0103   -2.9101   -5.1175 F   0  0  0  0  0  0  0  0  0  0  0  0
   -8.4805   -3.3385   -2.9581 F   0  0  0  0  0  0  0  0  0  0  0  0
   -6.8880   -3.5445   -4.6480 F   0  0  0  0  0  0  0  0  0  0  0  0
   -3.6276   -4.2685    1.4762 H   0  0  0  0  0  0  0  0  0  0  0  0
   -6.0957   -3.6176   -2.2243 H   0  0  0  0  0  0  0  0  0  0  0  0
   -6.9896    0.3656   -3.5319 H   0  0  0  0  0  0  0  0  0  0  0  0
   -1.3624   -1.1972    3.4151 H   0  0  0  0  0  0  0  0  0  0  0  0
   -0.8338    3.6469   -0.4932 H   0  0  0  0  0  0  0  0  0  0  0  0
    6.4465    1.1076   -3.5400 H   0  0  0  0  0  0  0  0  0  0  0  0
    0.4150   -1.9357    2.6110 H   0  0  0  0  0  0  0  0  0  0  0  0
    7.2033   -2.1204   -0.8231 H   0  0  0  0  0  0  0  0  0  0  0  0
    3.5040    4.3255   -2.4482 H   0  0  0  0  0  0  0  0  0  0  0  0
    4.6118   -2.6005    2.9987 H   0  0  0  0  0  0  0  0  0  0  0  0
   -4.9741    4.0006   -1.4621 H   0  0  0  0  0  0  0  0  0  0  0  0
    0.7426    4.0379    0.8100 H   0  0  0  0  0  0  0  0  0  0  0  0
  1  2  2  0  0  0  0
  1 95  1  0  0  0  0
  2  3  1  0  0  0  0
  3  4  2  0  0  0  0
  3  7  1  0  0  0  0
  4  5  1  0  0  0  0
  5  6  2  0  0  0  0
  5 92  1  0  0  0  0
  6 48  1  0  0  0  0
  6  1  1  0  0  0  0
  7 11  2  0  0  0  0
  8  7  1  0  0  0  0
  8  9  1  0  0  0  0
  9 10  2  0  0  0  0
 10  4  1  0  0  0  0
 11 12  1  0  0  0  0
 11 18  1  0  0  0  0
 12 13  2  0  0  0  0
 13 14  1  0  0  0  0
 14  8  1  0  0  0  0
 14 15  2  0  0  0  0
 15 16  1  0  0  0  0
 15 91  1  0  0  0  0
 16 60  1  0  0  0  0
 16 17  2  0  0  0  0
 17  9  1  0  0  0  0
 17 89  1  0  0  0  0
 18 19  3  0  0  0  0
 19 20  1  0  0  0  0
 19 90  1  0  0  0  0
 20 54  1  0  0  0  0
 20 21  2  0  0  0  0
 21 12  1  0  0  0  0
 21 93  1  0  0  0  0
 22  2  1  0  0  0  0
 23 18  1  0  0  0  0
 24 25  2  0  0  0  0
 24 87  1  0  0  0  0
 25 26  1  0  0  0  0
 25 45  1  0  0  0  0
 26 27  2  0  0  0  0
 26 30  1  0  0  0  0
 27 28  1  0  0  0  0
 28 29  2  0  0  0  0
 28 84  1  0  0  0  0
 29 66  1  0  0  0  0
 29 24  1  0  0  0  0
 30 34  2  0  0  0  0
 31 30  1  0  0  0  0
 31 32  1  0  0  0  0
 32 33  2  0  0  0  0
 33 27  1  0  0  0  0
 34 35  1  0  0  0  0
 34 41  1  0  0  0  0
 35 36  2  0  0  0  0
 36 37  1  0  0  0  0
 37 31  1  0  0  0  0
 37 38  2  0  0  0  0
 38 39  1  0  0  0  0
 38 86  1  0  0  0  0
 39 78  1  0  0  0  0
 39 40  2  0  0  0  0
 40 32  1  0  0  0  0
 40 85  1  0  0  0  0
 41 42  2  0  0  0  0
 41 46  1  0  0  0  0
 42 43  1  0  0  0  0
 42 88  1  0  0  0  0
 43 72  1  0  0  0  0
 43 44  2  0  0  0  0
 44 35  1  0  0  0  0
 44 94  1  0  0  0  0
 47 46  1  0  0  0  0
 47 22  1  0  0  0  0
 47 45  1  0  0  0  0
 47 23  1  0  0  0  0
 48 49  1  0  0  0  0
 48 50  1  0  0  0  0
 48 51  1  0  0  0  0
 48 52  1  0  0  0  0
 48 53  1  0  0  0  0
 54 55  1  0  0  0  0
 54 56  1  0  0  0  0
 54 57  1  0  0  0  0
 54 58  1  0  0  0  0
 54 59  1  0  0  0  0
 60 61  1  0  0  0  0
 60 62  1  0  0  0  0
 60 63  1  0  0  0  0
 60 64  1  0  0  0  0
 60 65  1  0  0  0  0
 66 67  1  0  0  0  0
 66 68  1  0  0  0  0
 66 69  1  0  0  0  0
 66 70  1  0  0  0  0
 66 71  1  0  0  0  0
 72 73  1  0  0  0  0
 72 74  1  0  0  0  0
 72 75  1  0  0  0  0
 72 76  1  0  0  0  0
 72 77  1  0  0  0  0
 78 79  1  0  0  0  0
 78 80  1  0  0  0  0
 78 81  1  0  0  0  0
 78 82  1  0  0  0  0
 78 83  1  0  0  0  0
M  CHG  1  13   1
M  CHG  1  47  -1
M  END
