 energy: -29.193242880400 gnorm: 0.000985182626 xtb: 6.7.1 (edcfbbe)
          03032513223D

156164  0     0  0            999 V2000
    1.2734    2.2017   -3.6170 C   0  0  0  0  0  0  0  0  0  0  0  0
    2.2310   -4.4009   -0.3560 C   0  0  0  0  0  0  0  0  0  0  0  0
   -3.2233    1.2118   -1.5224 C   0  0  0  0  0  0  0  0  0  0  0  0
   -2.5091    0.0231   -1.4271 C   0  0  0  0  0  0  0  0  0  0  0  0
   -1.0767    0.0960   -1.5373 C   0  0  0  0  0  0  0  0  0  0  0  0
   -0.5114    1.2264   -2.1927 C   0  0  0  0  0  0  0  0  0  0  0  0
   -1.2756    2.3902   -2.2711 C   0  0  0  0  0  0  0  0  0  0  0  0
   -2.5916    2.4058   -1.8452 C   0  0  0  0  0  0  0  0  0  0  0  0
   -0.1944   -0.9326   -1.0524 C   0  0  0  0  0  0  0  0  0  0  0  0
    1.0657   -1.0610   -1.6884 C   0  0  0  0  0  0  0  0  0  0  0  0
    1.5300   -0.0412   -2.5665 C   0  0  0  0  0  0  0  0  0  0  0  0
    0.7704    1.1220   -2.7458 N   0  0  0  0  0  0  0  0  0  0  0  0
   -0.4651   -1.7558    0.0954 C   0  0  0  0  0  0  0  0  0  0  0  0
    0.3118   -2.9294    0.2977 C   0  0  0  0  0  0  0  0  0  0  0  0
    1.4358   -3.1643   -0.5118 N   0  0  0  0  0  0  0  0  0  0  0  0
    1.8647   -2.2085   -1.4412 C   0  0  0  0  0  0  0  0  0  0  0  0
    3.0641   -2.3383   -2.1310 C   0  0  0  0  0  0  0  0  0  0  0  0
    3.5151   -1.3541   -2.9889 C   0  0  0  0  0  0  0  0  0  0  0  0
    2.7614   -0.2131   -3.1853 C   0  0  0  0  0  0  0  0  0  0  0  0
   -1.3925   -1.3601    1.1161 C   0  0  0  0  0  0  0  0  0  0  0  0
   -1.5972   -2.1974    2.2039 C   0  0  0  0  0  0  0  0  0  0  0  0
   -0.9193   -3.3924    2.3344 C   0  0  0  0  0  0  0  0  0  0  0  0
    0.0059   -3.7574    1.3790 C   0  0  0  0  0  0  0  0  0  0  0  0
   -2.0109   -0.1092    1.0732 O   0  0  0  0  0  0  0  0  0  0  0  0
   -3.1093   -1.2214   -1.2437 O   0  0  0  0  0  0  0  0  0  0  0  0
   -3.2765    3.6947   -1.6012 C   0  0  0  0  0  0  0  0  0  0  0  0
   -1.0932   -4.1904    3.5672 C   0  0  0  0  0  0  0  0  0  0  0  0
    4.8341   -1.4878   -3.6428 C   0  0  0  0  0  0  0  0  0  0  0  0
    5.3370   -0.5210   -4.1858 O   0  0  0  0  0  0  0  0  0  0  0  0
    5.4250   -2.7197   -3.5692 O   0  0  0  0  0  0  0  0  0  0  0  0
    6.6488   -2.6870   -4.2299 C   0  0  0  0  0  0  0  0  0  0  0  0
   -2.6487    4.7349   -1.6765 O   0  0  0  0  0  0  0  0  0  0  0  0
   -4.5879    3.6126   -1.2130 O   0  0  0  0  0  0  0  0  0  0  0  0
   -5.0156    4.8412   -0.7185 C   0  0  0  0  0  0  0  0  0  0  0  0
   -2.0061   -3.9300    4.3290 O   0  0  0  0  0  0  0  0  0  0  0  0
   -0.1638   -5.1675    3.7991 O   0  0  0  0  0  0  0  0  0  0  0  0
   -0.3888   -5.7237    5.0537 C   0  0  0  0  0  0  0  0  0  0  0  0
   -4.2676    1.2400   -1.2757 H   0  0  0  0  0  0  0  0  0  0  0  0
   -0.8303    3.3211   -2.5683 H   0  0  0  0  0  0  0  0  0  0  0  0
   -2.2265   -1.8900    3.0178 H   0  0  0  0  0  0  0  0  0  0  0  0
    0.5158   -4.6881    1.5299 H   0  0  0  0  0  0  0  0  0  0  0  0
    3.6887   -3.2006   -2.0033 H   0  0  0  0  0  0  0  0  0  0  0  0
    3.1768    0.5493   -3.8158 H   0  0  0  0  0  0  0  0  0  0  0  0
    1.8814   -5.4308   -1.4182 C   0  0  0  0  0  0  0  0  0  0  0  0
    2.7150   -6.6956   -1.3089 C   0  0  0  0  0  0  0  0  0  0  0  0
    2.2168    3.1394   -2.8810 C   0  0  0  0  0  0  0  0  0  0  0  0
    2.7763    4.2371   -3.7677 C   0  0  0  0  0  0  0  0  0  0  0  0
   -3.3039   -0.0920    1.6299 C   0  0  0  0  0  0  0  0  0  0  0  0
   -4.4864   -1.2561   -1.5363 C   0  0  0  0  0  0  0  0  0  0  0  0
   -6.1023    4.8284   -0.6167 H   0  0  0  0  0  0  0  0  0  0  0  0
   -4.7089    5.6345   -1.4042 H   0  0  0  0  0  0  0  0  0  0  0  0
   -4.5556    4.9914    0.2623 H   0  0  0  0  0  0  0  0  0  0  0  0
    0.3103   -6.5458    5.2183 H   0  0  0  0  0  0  0  0  0  0  0  0
   -1.4184   -6.0860    5.1027 H   0  0  0  0  0  0  0  0  0  0  0  0
   -0.2387   -4.9462    5.8070 H   0  0  0  0  0  0  0  0  0  0  0  0
    7.1057   -3.6778   -4.1908 H   0  0  0  0  0  0  0  0  0  0  0  0
    7.2976   -1.9552   -3.7435 H   0  0  0  0  0  0  0  0  0  0  0  0
    6.4820   -2.3919   -5.2685 H   0  0  0  0  0  0  0  0  0  0  0  0
    2.0957   -4.8253    0.6384 H   0  0  0  0  0  0  0  0  0  0  0  0
    3.2937   -4.1496   -0.3857 H   0  0  0  0  0  0  0  0  0  0  0  0
    2.0016   -4.9795   -2.4110 H   0  0  0  0  0  0  0  0  0  0  0  0
    0.8124   -5.6682   -1.3452 H   0  0  0  0  0  0  0  0  0  0  0  0
    3.7785   -6.4763   -1.4155 H   0  0  0  0  0  0  0  0  0  0  0  0
    2.4517   -7.4270   -2.0756 H   0  0  0  0  0  0  0  0  0  0  0  0
    2.5798   -7.1737   -0.3375 H   0  0  0  0  0  0  0  0  0  0  0  0
   -3.7744    0.8624    1.3905 H   0  0  0  0  0  0  0  0  0  0  0  0
   -3.2384   -0.2019    2.7093 H   0  0  0  0  0  0  0  0  0  0  0  0
   -3.8896   -0.9089    1.2081 H   0  0  0  0  0  0  0  0  0  0  0  0
   -4.8146   -2.2960   -1.5247 H   0  0  0  0  0  0  0  0  0  0  0  0
   -4.6622   -0.8377   -2.5283 H   0  0  0  0  0  0  0  0  0  0  0  0
   -5.0479   -0.6988   -0.7864 H   0  0  0  0  0  0  0  0  0  0  0  0
    3.4505    4.8992   -3.2209 H   0  0  0  0  0  0  0  0  0  0  0  0
    1.9774    4.8517   -4.1856 H   0  0  0  0  0  0  0  0  0  0  0  0
    3.3354    3.8187   -4.6061 H   0  0  0  0  0  0  0  0  0  0  0  0
    3.0340    2.5542   -2.4416 H   0  0  0  0  0  0  0  0  0  0  0  0
    1.6933    3.5730   -2.0209 H   0  0  0  0  0  0  0  0  0  0  0  0
    0.4284    2.7532   -4.0360 H   0  0  0  0  0  0  0  0  0  0  0  0
    1.7621    1.7586   -4.4881 H   0  0  0  0  0  0  0  0  0  0  0  0
   -0.5313    3.6095    0.6225 C   0  0  0  0  0  0  0  0  0  0  0  0
    2.7447   -2.0760    4.0789 C   0  0  0  0  0  0  0  0  0  0  0  0
   -3.8869    2.3178    4.1177 C   0  0  0  0  0  0  0  0  0  0  0  0
   -2.8708    1.3797    4.2600 C   0  0  0  0  0  0  0  0  0  0  0  0
   -1.5887    1.6518    3.6646 C   0  0  0  0  0  0  0  0  0  0  0  0
   -1.5094    2.6911    2.6986 C   0  0  0  0  0  0  0  0  0  0  0  0
   -2.5713    3.5861    2.5830 C   0  0  0  0  0  0  0  0  0  0  0  0
   -3.7362    3.4266    3.3015 C   0  0  0  0  0  0  0  0  0  0  0  0
   -0.4411    0.8113    3.8779 C   0  0  0  0  0  0  0  0  0  0  0  0
    0.5760    0.7926    2.8880 C   0  0  0  0  0  0  0  0  0  0  0  0
    0.5894    1.7762    1.8623 C   0  0  0  0  0  0  0  0  0  0  0  0
   -0.4366    2.7248    1.7988 N   0  0  0  0  0  0  0  0  0  0  0  0
   -0.2783   -0.0409    5.0241 C   0  0  0  0  0  0  0  0  0  0  0  0
    0.6131   -1.1459    4.9367 C   0  0  0  0  0  0  0  0  0  0  0  0
    1.5870   -1.1699    3.9303 N   0  0  0  0  0  0  0  0  0  0  0  0
    1.5942   -0.2012    2.9214 C   0  0  0  0  0  0  0  0  0  0  0  0
    2.5835   -0.1790    1.9455 C   0  0  0  0  0  0  0  0  0  0  0  0
    2.6266    0.8111    0.9834 C   0  0  0  0  0  0  0  0  0  0  0  0
    1.6388    1.7753    0.9514 C   0  0  0  0  0  0  0  0  0  0  0  0
   -0.9035    0.2247    6.2914 C   0  0  0  0  0  0  0  0  0  0  0  0
   -0.9118   -0.7874    7.2443 C   0  0  0  0  0  0  0  0  0  0  0  0
   -0.2301   -1.9772    7.0442 C   0  0  0  0  0  0  0  0  0  0  0  0
    0.5609   -2.1275    5.9241 C   0  0  0  0  0  0  0  0  0  0  0  0
   -1.4063    1.5006    6.5315 O   0  0  0  0  0  0  0  0  0  0  0  0
   -3.0884    0.1236    4.8256 O   0  0  0  0  0  0  0  0  0  0  0  0
   -4.8504    4.3796    3.1075 C   0  0  0  0  0  0  0  0  0  0  0  0
   -0.2962   -3.0483    8.0621 C   0  0  0  0  0  0  0  0  0  0  0  0
    3.7427    0.8695    0.0157 C   0  0  0  0  0  0  0  0  0  0  0  0
    3.8190    1.8048   -0.7587 O   0  0  0  0  0  0  0  0  0  0  0  0
    4.6451   -0.1575    0.0651 O   0  0  0  0  0  0  0  0  0  0  0  0
    5.6491    0.0578   -0.8742 C   0  0  0  0  0  0  0  0  0  0  0  0
   -4.7383    5.2880    2.3045 O   0  0  0  0  0  0  0  0  0  0  0  0
   -5.9726    4.1568    3.8574 O   0  0  0  0  0  0  0  0  0  0  0  0
   -6.9291    5.1229    3.5645 C   0  0  0  0  0  0  0  0  0  0  0  0
   -0.8634   -2.8402    9.1186 O   0  0  0  0  0  0  0  0  0  0  0  0
    0.3041   -4.2354    7.7403 O   0  0  0  0  0  0  0  0  0  0  0  0
    0.1553   -5.1266    8.7980 C   0  0  0  0  0  0  0  0  0  0  0  0
   -4.8366    2.1729    4.5955 H   0  0  0  0  0  0  0  0  0  0  0  0
   -2.5146    4.4254    1.9163 H   0  0  0  0  0  0  0  0  0  0  0  0
   -1.4431   -0.6684    8.1692 H   0  0  0  0  0  0  0  0  0  0  0  0
    1.1254   -3.0345    5.8217 H   0  0  0  0  0  0  0  0  0  0  0  0
    3.3506   -0.9286    1.9198 H   0  0  0  0  0  0  0  0  0  0  0  0
    1.7294    2.5463    0.2117 H   0  0  0  0  0  0  0  0  0  0  0  0
    2.5851   -3.3535    3.2751 C   0  0  0  0  0  0  0  0  0  0  0  0
    3.7677   -4.2952    3.4134 C   0  0  0  0  0  0  0  0  0  0  0  0
    0.0532    4.9905    0.8645 C   0  0  0  0  0  0  0  0  0  0  0  0
   -0.1417    5.9150   -0.3261 C   0  0  0  0  0  0  0  0  0  0  0  0
   -1.9418    1.7009    7.8158 C   0  0  0  0  0  0  0  0  0  0  0  0
   -4.3585   -0.0831    5.3935 C   0  0  0  0  0  0  0  0  0  0  0  0
   -7.8056    4.9645    4.1960 H   0  0  0  0  0  0  0  0  0  0  0  0
   -7.2065    5.0405    2.5113 H   0  0  0  0  0  0  0  0  0  0  0  0
   -6.5039    6.1111    3.7547 H   0  0  0  0  0  0  0  0  0  0  0  0
    0.6363   -6.0739    8.5463 H   0  0  0  0  0  0  0  0  0  0  0  0
   -0.9105   -5.2828    8.9806 H   0  0  0  0  0  0  0  0  0  0  0  0
    0.6178   -4.6974    9.6898 H   0  0  0  0  0  0  0  0  0  0  0  0
    6.3068   -0.8129   -0.9046 H   0  0  0  0  0  0  0  0  0  0  0  0
    6.2145    0.9484   -0.5923 H   0  0  0  0  0  0  0  0  0  0  0  0
    5.1910    0.2123   -1.8539 H   0  0  0  0  0  0  0  0  0  0  0  0
    2.8914   -2.3011    5.1382 H   0  0  0  0  0  0  0  0  0  0  0  0
    3.6549   -1.5439    3.7912 H   0  0  0  0  0  0  0  0  0  0  0  0
    2.4279   -3.0900    2.2226 H   0  0  0  0  0  0  0  0  0  0  0  0
    1.6615   -3.8567    3.5858 H   0  0  0  0  0  0  0  0  0  0  0  0
    4.6896   -3.8230    3.0705 H   0  0  0  0  0  0  0  0  0  0  0  0
    3.6312   -5.2111    2.8351 H   0  0  0  0  0  0  0  0  0  0  0  0
    3.9200   -4.5844    4.4544 H   0  0  0  0  0  0  0  0  0  0  0  0
   -2.2887    2.7326    7.8850 H   0  0  0  0  0  0  0  0  0  0  0  0
   -1.1704    1.5326    8.5684 H   0  0  0  0  0  0  0  0  0  0  0  0
   -2.7877    1.0312    7.9733 H   0  0  0  0  0  0  0  0  0  0  0  0
   -4.3706   -1.0797    5.8370 H   0  0  0  0  0  0  0  0  0  0  0  0
   -5.1274   -0.0270    4.6222 H   0  0  0  0  0  0  0  0  0  0  0  0
   -4.5399    0.6563    6.1740 H   0  0  0  0  0  0  0  0  0  0  0  0
    0.2395    6.9196   -0.1344 H   0  0  0  0  0  0  0  0  0  0  0  0
   -1.1989    6.0028   -0.5841 H   0  0  0  0  0  0  0  0  0  0  0  0
    0.3670    5.5316   -1.2114 H   0  0  0  0  0  0  0  0  0  0  0  0
    1.1183    4.8959    1.1108 H   0  0  0  0  0  0  0  0  0  0  0  0
   -0.4056    5.4241    1.7617 H   0  0  0  0  0  0  0  0  0  0  0  0
   -1.5797    3.6826    0.3229 H   0  0  0  0  0  0  0  0  0  0  0  0
   -0.0488    3.1291   -0.2296 H   0  0  0  0  0  0  0  0  0  0  0  0
  1 46  1  0  0  0  0
  1 77  1  0  0  0  0
  1 78  1  0  0  0  0
  2 44  1  0  0  0  0
  2 59  1  0  0  0  0
  2 60  1  0  0  0  0
  3  4  2  0  0  0  0
  3 38  1  0  0  0  0
  4  5  1  0  0  0  0
  4 25  1  0  0  0  0
  5  6  2  0  0  0  0
  5  9  1  0  0  0  0
  6  7  1  0  0  0  0
  7  8  2  0  0  0  0
  7 39  1  0  0  0  0
  8  3  1  0  0  0  0
  8 26  1  0  0  0  0
  9 10  1  0  0  0  0
 10 11  2  0  0  0  0
 11 12  1  0  0  0  0
 12  1  1  0  0  0  0
 12  6  1  0  0  0  0
 13 14  2  0  0  0  0
 13 20  1  0  0  0  0
 13  9  1  0  0  0  0
 14 15  1  0  0  0  0
 15  2  1  0  0  0  0
 15 16  1  0  0  0  0
 16 10  1  0  0  0  0
 16 17  2  0  0  0  0
 17 18  1  0  0  0  0
 17 42  1  0  0  0  0
 18 19  2  0  0  0  0
 18 28  1  0  0  0  0
 19 11  1  0  0  0  0
 19 43  1  0  0  0  0
 20 21  2  0  0  0  0
 21 22  1  0  0  0  0
 21 40  1  0  0  0  0
 22 23  2  0  0  0  0
 22 27  1  0  0  0  0
 23 14  1  0  0  0  0
 23 41  1  0  0  0  0
 24 48  1  0  0  0  0
 24 20  1  0  0  0  0
 25 49  1  0  0  0  0
 26 32  2  0  0  0  0
 26 33  1  0  0  0  0
 27 35  2  0  0  0  0
 27 36  1  0  0  0  0
 28 29  2  0  0  0  0
 28 30  1  0  0  0  0
 30 31  1  0  0  0  0
 31 56  1  0  0  0  0
 31 57  1  0  0  0  0
 31 58  1  0  0  0  0
 33 34  1  0  0  0  0
 34 50  1  0  0  0  0
 34 51  1  0  0  0  0
 34 52  1  0  0  0  0
 36 37  1  0  0  0  0
 37 53  1  0  0  0  0
 37 54  1  0  0  0  0
 37 55  1  0  0  0  0
 44 45  1  0  0  0  0
 44 61  1  0  0  0  0
 44 62  1  0  0  0  0
 45 63  1  0  0  0  0
 45 64  1  0  0  0  0
 45 65  1  0  0  0  0
 46 47  1  0  0  0  0
 46 75  1  0  0  0  0
 46 76  1  0  0  0  0
 47 72  1  0  0  0  0
 47 73  1  0  0  0  0
 47 74  1  0  0  0  0
 48 66  1  0  0  0  0
 48 67  1  0  0  0  0
 48 68  1  0  0  0  0
 49 69  1  0  0  0  0
 49 70  1  0  0  0  0
 49 71  1  0  0  0  0
 79124  1  0  0  0  0
 79155  1  0  0  0  0
 79156  1  0  0  0  0
 80122  1  0  0  0  0
 80137  1  0  0  0  0
 80138  1  0  0  0  0
 81 82  2  0  0  0  0
 81116  1  0  0  0  0
 82 83  1  0  0  0  0
 82103  1  0  0  0  0
 83 84  2  0  0  0  0
 83 87  1  0  0  0  0
 84 85  1  0  0  0  0
 85 86  2  0  0  0  0
 85117  1  0  0  0  0
 86 81  1  0  0  0  0
 86104  1  0  0  0  0
 87 88  1  0  0  0  0
 88 89  2  0  0  0  0
 89 90  1  0  0  0  0
 90 79  1  0  0  0  0
 90 84  1  0  0  0  0
 91 92  2  0  0  0  0
 91 98  1  0  0  0  0
 91 87  1  0  0  0  0
 92 93  1  0  0  0  0
 93 80  1  0  0  0  0
 93 94  1  0  0  0  0
 94 88  1  0  0  0  0
 94 95  2  0  0  0  0
 95 96  1  0  0  0  0
 95120  1  0  0  0  0
 96 97  2  0  0  0  0
 96106  1  0  0  0  0
 97 89  1  0  0  0  0
 97121  1  0  0  0  0
 98 99  2  0  0  0  0
 99100  1  0  0  0  0
 99118  1  0  0  0  0
100101  2  0  0  0  0
100105  1  0  0  0  0
101 92  1  0  0  0  0
101119  1  0  0  0  0
102126  1  0  0  0  0
102 98  1  0  0  0  0
103127  1  0  0  0  0
104110  2  0  0  0  0
104111  1  0  0  0  0
105113  2  0  0  0  0
105114  1  0  0  0  0
106107  2  0  0  0  0
106108  1  0  0  0  0
108109  1  0  0  0  0
109134  1  0  0  0  0
109135  1  0  0  0  0
109136  1  0  0  0  0
111112  1  0  0  0  0
112128  1  0  0  0  0
112129  1  0  0  0  0
112130  1  0  0  0  0
114115  1  0  0  0  0
115131  1  0  0  0  0
115132  1  0  0  0  0
115133  1  0  0  0  0
122123  1  0  0  0  0
122139  1  0  0  0  0
122140  1  0  0  0  0
123141  1  0  0  0  0
123142  1  0  0  0  0
123143  1  0  0  0  0
124125  1  0  0  0  0
124153  1  0  0  0  0
124154  1  0  0  0  0
125150  1  0  0  0  0
125151  1  0  0  0  0
125152  1  0  0  0  0
126144  1  0  0  0  0
126145  1  0  0  0  0
126146  1  0  0  0  0
127147  1  0  0  0  0
127148  1  0  0  0  0
127149  1  0  0  0  0
M  END
