 energy: -106.513030936087 gnorm: 0.000197099439 xtb: 6.7.1 (edcfbbe)
          03042511443D

 58 62  0     0  0            999 V2000
   -2.5611    2.5045   -2.1165 C   0  0  0  0  0  0  0  0  0  0  0  0
   -2.2737    1.3143   -1.4638 C   0  0  0  0  0  0  0  0  0  0  0  0
   -1.2501    1.2902   -0.4910 C   0  0  0  0  0  0  0  0  0  0  0  0
   -0.3314    2.4054   -0.4524 C   0  0  0  0  0  0  0  0  0  0  0  0
   -0.6541    3.6000   -1.1439 C   0  0  0  0  0  0  0  0  0  0  0  0
   -1.7833    3.6578   -1.9221 C   0  0  0  0  0  0  0  0  0  0  0  0
   -0.9925    0.2259    0.4295 C   0  0  0  0  0  0  0  0  0  0  0  0
    0.3131    0.1422    0.9448 C   0  0  0  0  0  0  0  0  0  0  0  0
    1.2202    1.2243    0.7605 C   0  0  0  0  0  0  0  0  0  0  0  0
    0.8433    2.3466    0.1534 N   0  0  0  0  0  0  0  0  0  0  0  0
   -1.9230   -0.7522    0.8937 C   0  0  0  0  0  0  0  0  0  0  0  0
   -1.3687   -1.9486    1.4806 C   0  0  0  0  0  0  0  0  0  0  0  0
   -0.0953   -2.0567    1.8220 N   0  0  0  0  0  0  0  0  0  0  0  0
    0.7219   -1.0183    1.6616 C   0  0  0  0  0  0  0  0  0  0  0  0
    2.0461   -1.0890    2.1413 C   0  0  0  0  0  0  0  0  0  0  0  0
    2.9179   -0.0180    1.9770 C   0  0  0  0  0  0  0  0  0  0  0  0
    2.5156    1.1350    1.3149 C   0  0  0  0  0  0  0  0  0  0  0  0
   -3.3329   -0.5862    0.8966 C   0  0  0  0  0  0  0  0  0  0  0  0
   -4.1252   -1.6932    1.1830 C   0  0  0  0  0  0  0  0  0  0  0  0
   -3.5688   -2.9184    1.5864 C   0  0  0  0  0  0  0  0  0  0  0  0
   -2.2171   -3.0480    1.7768 C   0  0  0  0  0  0  0  0  0  0  0  0
   -3.8011    0.6437    0.6741 O   0  0  0  0  0  0  0  0  0  0  0  0
   -3.0218    0.2226   -1.7936 O   0  0  0  0  0  0  0  0  0  0  0  0
   -2.1017    4.9483   -2.6214 C   0  0  0  0  0  0  0  0  0  0  0  0
   -4.5334   -4.0401    1.8480 C   0  0  0  0  0  0  0  0  0  0  0  0
    0.0137    4.4448   -1.0732 H   0  0  0  0  0  0  0  0  0  0  0  0
   -3.3924    2.5284   -2.8047 H   0  0  0  0  0  0  0  0  0  0  0  0
    3.1793    1.9809    1.2188 H   0  0  0  0  0  0  0  0  0  0  0  0
    2.3846   -1.9843    2.6442 H   0  0  0  0  0  0  0  0  0  0  0  0
   -1.7773   -3.9441    2.1815 H   0  0  0  0  0  0  0  0  0  0  0  0
   -5.2014   -1.6493    1.1081 H   0  0  0  0  0  0  0  0  0  0  0  0
   -1.4054    5.9238   -2.5374 O   0  0  0  0  0  0  0  0  0  0  0  0
   -3.2259    4.8729   -3.3251 O   0  0  0  0  0  0  0  0  0  0  0  0
   -3.6071    6.0562   -4.0234 C   0  0  0  0  0  0  0  0  0  0  0  0
    4.3073   -0.1626    2.5438 C   0  0  0  0  0  0  0  0  0  0  0  0
    4.6890   -1.1748    3.0658 O   0  0  0  0  0  0  0  0  0  0  0  0
    5.0233    0.9410    2.3890 O   0  0  0  0  0  0  0  0  0  0  0  0
    6.3565    0.9037    2.8961 C   0  0  0  0  0  0  0  0  0  0  0  0
   -5.7173   -3.9334    1.6607 O   0  0  0  0  0  0  0  0  0  0  0  0
   -3.9251   -5.1293    2.2933 O   0  0  0  0  0  0  0  0  0  0  0  0
   -4.7614   -6.2502    2.5722 C   0  0  0  0  0  0  0  0  0  0  0  0
   -5.1999    0.8654    0.6563 C   0  0  0  0  0  0  0  0  0  0  0  0
   -2.3310   -0.8980   -2.3228 C   0  0  0  0  0  0  0  0  0  0  0  0
   -4.1035   -7.0344    2.9357 H   0  0  0  0  0  0  0  0  0  0  0  0
   -5.2786   -6.5697    1.6660 H   0  0  0  0  0  0  0  0  0  0  0  0
   -5.5038   -5.9883    3.3278 H   0  0  0  0  0  0  0  0  0  0  0  0
    6.7923    1.8728    2.6704 H   0  0  0  0  0  0  0  0  0  0  0  0
    6.9208    0.1040    2.4139 H   0  0  0  0  0  0  0  0  0  0  0  0
    6.3450    0.7274    3.9728 H   0  0  0  0  0  0  0  0  0  0  0  0
   -3.0899   -1.6601   -2.4858 H   0  0  0  0  0  0  0  0  0  0  0  0
   -1.5678   -1.2860   -1.6432 H   0  0  0  0  0  0  0  0  0  0  0  0
   -1.8642   -0.6421   -3.2784 H   0  0  0  0  0  0  0  0  0  0  0  0
   -5.3197    1.9342    0.4918 H   0  0  0  0  0  0  0  0  0  0  0  0
   -5.6589    0.5888    1.6083 H   0  0  0  0  0  0  0  0  0  0  0  0
   -5.6714    0.3162   -0.1614 H   0  0  0  0  0  0  0  0  0  0  0  0
   -4.5223    5.8124   -4.5556 H   0  0  0  0  0  0  0  0  0  0  0  0
   -2.8215    6.3518   -4.7206 H   0  0  0  0  0  0  0  0  0  0  0  0
   -3.7763    6.8718   -3.3185 H   0  0  0  0  0  0  0  0  0  0  0  0
  1  6  2  0  0  0  0
  1  2  1  0  0  0  0
  2  3  2  0  0  0  0
  3  7  1  0  0  0  0
  4  3  1  0  0  0  0
  4 10  1  0  0  0  0
  5  4  2  0  0  0  0
  6  5  1  0  0  0  0
  7 11  2  0  0  0  0
  7  8  1  0  0  0  0
  8 14  1  0  0  0  0
  9  8  2  0  0  0  0
  9 17  1  0  0  0  0
 10  9  1  0  0  0  0
 11 12  1  0  0  0  0
 12 21  1  0  0  0  0
 12 13  2  0  0  0  0
 14 13  1  0  0  0  0
 14 15  2  0  0  0  0
 15 29  1  0  0  0  0
 16 15  1  0  0  0  0
 16 35  1  0  0  0  0
 17 16  2  0  0  0  0
 18 11  1  0  0  0  0
 18 19  2  0  0  0  0
 19 20  1  0  0  0  0
 20 21  2  0  0  0  0
 20 25  1  0  0  0  0
 21 30  1  0  0  0  0
 22 18  1  0  0  0  0
 23  2  1  0  0  0  0
 24  6  1  0  0  0  0
 25 40  1  0  0  0  0
 26  5  1  0  0  0  0
 27  1  1  0  0  0  0
 28 17  1  0  0  0  0
 31 19  1  0  0  0  0
 32 24  2  0  0  0  0
 33 34  1  0  0  0  0
 33 24  1  0  0  0  0
 34 57  1  0  0  0  0
 34 58  1  0  0  0  0
 35 36  2  0  0  0  0
 37 35  1  0  0  0  0
 38 37  1  0  0  0  0
 39 25  2  0  0  0  0
 41 44  1  0  0  0  0
 41 40  1  0  0  0  0
 42 54  1  0  0  0  0
 42 22  1  0  0  0  0
 43 23  1  0  0  0  0
 45 41  1  0  0  0  0
 46 41  1  0  0  0  0
 47 38  1  0  0  0  0
 48 38  1  0  0  0  0
 49 38  1  0  0  0  0
 50 43  1  0  0  0  0
 51 43  1  0  0  0  0
 52 43  1  0  0  0  0
 53 42  1  0  0  0  0
 55 42  1  0  0  0  0
 56 34  1  0  0  0  0
M  CHG  1   1   1
M  END
