 energy: -29.183230230925 gnorm: 0.000453098618 xtb: 6.7.1 (edcfbbe)
          03032513273D

156164  0     0  0            999 V2000
    0.9875    3.0484   -4.1584 C   0  0  0  0  0  0  0  0  0  0  0  0
    2.2947   -3.4785   -0.9093 C   0  0  0  0  0  0  0  0  0  0  0  0
   -3.5096    1.7282   -2.3344 C   0  0  0  0  0  0  0  0  0  0  0  0
   -2.6983    0.6269   -2.0899 C   0  0  0  0  0  0  0  0  0  0  0  0
   -1.2732    0.8175   -2.1097 C   0  0  0  0  0  0  0  0  0  0  0  0
   -0.7614    1.9786   -2.7542 C   0  0  0  0  0  0  0  0  0  0  0  0
   -1.6210    3.0566   -2.9580 C   0  0  0  0  0  0  0  0  0  0  0  0
   -2.9733    2.9510   -2.7065 C   0  0  0  0  0  0  0  0  0  0  0  0
   -0.3432   -0.1693   -1.6257 C   0  0  0  0  0  0  0  0  0  0  0  0
    0.9290   -0.2256   -2.2500 C   0  0  0  0  0  0  0  0  0  0  0  0
    1.3596    0.8360   -3.0929 C   0  0  0  0  0  0  0  0  0  0  0  0
    0.5421    1.9590   -3.2675 N   0  0  0  0  0  0  0  0  0  0  0  0
   -0.6121   -1.0714   -0.5396 C   0  0  0  0  0  0  0  0  0  0  0  0
    0.2075   -2.2217   -0.3805 C   0  0  0  0  0  0  0  0  0  0  0  0
    1.3750   -2.3507   -1.1486 N   0  0  0  0  0  0  0  0  0  0  0  0
    1.7652   -1.3550   -2.0502 C   0  0  0  0  0  0  0  0  0  0  0  0
    2.9584   -1.4312   -2.7599 C   0  0  0  0  0  0  0  0  0  0  0  0
    3.3804   -0.4003   -3.5779 C   0  0  0  0  0  0  0  0  0  0  0  0
    2.5959    0.7271   -3.7177 C   0  0  0  0  0  0  0  0  0  0  0  0
   -1.6062   -0.7929    0.4562 C   0  0  0  0  0  0  0  0  0  0  0  0
   -1.8561   -1.7410    1.4396 C   0  0  0  0  0  0  0  0  0  0  0  0
   -1.1527   -2.9300    1.4967 C   0  0  0  0  0  0  0  0  0  0  0  0
   -0.1310   -3.1574    0.5982 C   0  0  0  0  0  0  0  0  0  0  0  0
   -2.2474    0.4500    0.4840 O   0  0  0  0  0  0  0  0  0  0  0  0
   -3.2049   -0.6574   -1.8897 O   0  0  0  0  0  0  0  0  0  0  0  0
   -3.8420    4.1318   -2.8921 C   0  0  0  0  0  0  0  0  0  0  0  0
   -1.4602   -3.9076    2.5644 C   0  0  0  0  0  0  0  0  0  0  0  0
    4.6707   -0.4843   -4.2960 C   0  0  0  0  0  0  0  0  0  0  0  0
    4.9630    0.3723   -5.1101 O   0  0  0  0  0  0  0  0  0  0  0  0
    5.4718   -1.5504   -3.9893 O   0  0  0  0  0  0  0  0  0  0  0  0
    6.6296   -1.4921   -4.7582 C   0  0  0  0  0  0  0  0  0  0  0  0
   -3.3552    5.1813   -3.2709 O   0  0  0  0  0  0  0  0  0  0  0  0
   -5.1694    3.9610   -2.6116 O   0  0  0  0  0  0  0  0  0  0  0  0
   -5.8371    5.1679   -2.7870 C   0  0  0  0  0  0  0  0  0  0  0  0
   -2.4215   -3.7229    3.2877 O   0  0  0  0  0  0  0  0  0  0  0  0
   -0.6222   -4.9824    2.6811 O   0  0  0  0  0  0  0  0  0  0  0  0
   -1.0456   -5.7836    3.7386 C   0  0  0  0  0  0  0  0  0  0  0  0
   -4.5750    1.6549   -2.2289 H   0  0  0  0  0  0  0  0  0  0  0  0
   -1.2510    4.0043   -3.3016 H   0  0  0  0  0  0  0  0  0  0  0  0
   -2.5410   -1.5274    2.2392 H   0  0  0  0  0  0  0  0  0  0  0  0
    0.3987   -4.0861    0.6814 H   0  0  0  0  0  0  0  0  0  0  0  0
    3.5894   -2.2954   -2.6873 H   0  0  0  0  0  0  0  0  0  0  0  0
    2.9834    1.5176   -4.3310 H   0  0  0  0  0  0  0  0  0  0  0  0
    2.0734   -4.6183   -1.8899 C   0  0  0  0  0  0  0  0  0  0  0  0
    3.0299   -5.7765   -1.6659 C   0  0  0  0  0  0  0  0  0  0  0  0
    1.8162    4.0825   -3.4152 C   0  0  0  0  0  0  0  0  0  0  0  0
    2.3723    5.1612   -4.3281 C   0  0  0  0  0  0  0  0  0  0  0  0
   -3.5936    0.3969    0.8994 C   0  0  0  0  0  0  0  0  0  0  0  0
   -4.5318   -0.8445   -2.3250 C   0  0  0  0  0  0  0  0  0  0  0  0
   -6.8975    5.0281   -2.5675 H   0  0  0  0  0  0  0  0  0  0  0  0
   -5.7062    5.4986   -3.8201 H   0  0  0  0  0  0  0  0  0  0  0  0
   -5.4074    5.9091   -2.1086 H   0  0  0  0  0  0  0  0  0  0  0  0
   -0.3932   -6.6550    3.8200 H   0  0  0  0  0  0  0  0  0  0  0  0
   -2.0745   -6.0999    3.5533 H   0  0  0  0  0  0  0  0  0  0  0  0
   -1.0071   -5.2011    4.6622 H   0  0  0  0  0  0  0  0  0  0  0  0
    7.2742   -2.3370   -4.5081 H   0  0  0  0  0  0  0  0  0  0  0  0
    7.1454   -0.5514   -4.5514 H   0  0  0  0  0  0  0  0  0  0  0  0
    6.3543   -1.5306   -5.8147 H   0  0  0  0  0  0  0  0  0  0  0  0
    2.1831   -3.8309    0.1142 H   0  0  0  0  0  0  0  0  0  0  0  0
    3.3249   -3.1152   -0.9472 H   0  0  0  0  0  0  0  0  0  0  0  0
    2.1674   -4.2370   -2.9143 H   0  0  0  0  0  0  0  0  0  0  0  0
    1.0334   -4.9596   -1.8117 H   0  0  0  0  0  0  0  0  0  0  0  0
    4.0673   -5.4561   -1.7742 H   0  0  0  0  0  0  0  0  0  0  0  0
    2.8610   -6.5903   -2.3738 H   0  0  0  0  0  0  0  0  0  0  0  0
    2.9226   -6.1870   -0.6606 H   0  0  0  0  0  0  0  0  0  0  0  0
   -4.0589    1.3613    0.6918 H   0  0  0  0  0  0  0  0  0  0  0  0
   -3.6531    0.1902    1.9645 H   0  0  0  0  0  0  0  0  0  0  0  0
   -4.1077   -0.3872    0.3439 H   0  0  0  0  0  0  0  0  0  0  0  0
   -4.7614   -1.9096   -2.2794 H   0  0  0  0  0  0  0  0  0  0  0  0
   -4.6321   -0.5018   -3.3557 H   0  0  0  0  0  0  0  0  0  0  0  0
   -5.2240   -0.3054   -1.6781 H   0  0  0  0  0  0  0  0  0  0  0  0
    2.9631    5.8973   -3.7796 H   0  0  0  0  0  0  0  0  0  0  0  0
    1.5706    5.6966   -4.8391 H   0  0  0  0  0  0  0  0  0  0  0  0
    3.0156    4.7317   -5.0977 H   0  0  0  0  0  0  0  0  0  0  0  0
    2.6311    3.5737   -2.8843 H   0  0  0  0  0  0  0  0  0  0  0  0
    1.1979    4.5297   -2.6278 H   0  0  0  0  0  0  0  0  0  0  0  0
    0.1205    3.5120   -4.6347 H   0  0  0  0  0  0  0  0  0  0  0  0
    1.5483    2.6237   -4.9941 H   0  0  0  0  0  0  0  0  0  0  0  0
    0.3663    3.2620    0.6925 C   0  0  0  0  0  0  0  0  0  0  0  0
    2.6744   -3.0196    3.9360 C   0  0  0  0  0  0  0  0  0  0  0  0
   -3.4433    2.0580    3.7679 C   0  0  0  0  0  0  0  0  0  0  0  0
   -2.5833    0.9685    3.8353 C   0  0  0  0  0  0  0  0  0  0  0  0
   -1.2303    1.1321    3.3734 C   0  0  0  0  0  0  0  0  0  0  0  0
   -0.9371    2.2434    2.5375 C   0  0  0  0  0  0  0  0  0  0  0  0
   -1.8487    3.2966    2.4876 C   0  0  0  0  0  0  0  0  0  0  0  0
   -3.0693    3.2274    3.1264 C   0  0  0  0  0  0  0  0  0  0  0  0
   -0.2071    0.1524    3.6108 C   0  0  0  0  0  0  0  0  0  0  0  0
    0.8849    0.0894    2.7075 C   0  0  0  0  0  0  0  0  0  0  0  0
    1.0759    1.1207    1.7467 C   0  0  0  0  0  0  0  0  0  0  0  0
    0.1890    2.2027    1.7052 N   0  0  0  0  0  0  0  0  0  0  0  0
   -0.2508   -0.7897    4.6939 C   0  0  0  0  0  0  0  0  0  0  0  0
    0.5449   -1.9639    4.6092 C   0  0  0  0  0  0  0  0  0  0  0  0
    1.6139   -2.0156    3.7073 N   0  0  0  0  0  0  0  0  0  0  0  0
    1.7941   -1.0043    2.7585 C   0  0  0  0  0  0  0  0  0  0  0  0
    2.8398   -1.0488    1.8465 C   0  0  0  0  0  0  0  0  0  0  0  0
    3.0325   -0.0401    0.9235 C   0  0  0  0  0  0  0  0  0  0  0  0
    2.1628    1.0320    0.8853 C   0  0  0  0  0  0  0  0  0  0  0  0
   -0.9989   -0.5688    5.9037 C   0  0  0  0  0  0  0  0  0  0  0  0
   -1.2314   -1.6567    6.7386 C   0  0  0  0  0  0  0  0  0  0  0  0
   -0.6407   -2.8874    6.5004 C   0  0  0  0  0  0  0  0  0  0  0  0
    0.2876   -3.0116    5.4884 C   0  0  0  0  0  0  0  0  0  0  0  0
   -1.3959    0.7279    6.2185 O   0  0  0  0  0  0  0  0  0  0  0  0
   -3.0091   -0.3068    4.2021 O   0  0  0  0  0  0  0  0  0  0  0  0
   -4.0056    4.3667    3.0302 C   0  0  0  0  0  0  0  0  0  0  0  0
   -0.9697   -4.0543    7.3465 C   0  0  0  0  0  0  0  0  0  0  0  0
    4.1659   -0.0982   -0.0219 C   0  0  0  0  0  0  0  0  0  0  0  0
    4.3623    0.8331   -0.7809 O   0  0  0  0  0  0  0  0  0  0  0  0
    4.9346   -1.2299    0.0218 O   0  0  0  0  0  0  0  0  0  0  0  0
    5.9437   -1.1423   -0.9307 C   0  0  0  0  0  0  0  0  0  0  0  0
   -3.6418    5.4009    2.5014 O   0  0  0  0  0  0  0  0  0  0  0  0
   -5.2561    4.1722    3.5485 O   0  0  0  0  0  0  0  0  0  0  0  0
   -6.0138    5.3245    3.3695 C   0  0  0  0  0  0  0  0  0  0  0  0
   -1.6011   -3.8994    8.3751 O   0  0  0  0  0  0  0  0  0  0  0  0
   -0.5338   -5.2690    6.8897 O   0  0  0  0  0  0  0  0  0  0  0  0
   -0.9392   -6.2648    7.7719 C   0  0  0  0  0  0  0  0  0  0  0  0
   -4.4380    1.9974    4.1660 H   0  0  0  0  0  0  0  0  0  0  0  0
   -1.6259    4.1975    1.9480 H   0  0  0  0  0  0  0  0  0  0  0  0
   -1.8759   -1.5697    7.5926 H   0  0  0  0  0  0  0  0  0  0  0  0
    0.7876   -3.9542    5.3730 H   0  0  0  0  0  0  0  0  0  0  0  0
    3.5202   -1.8781    1.8300 H   0  0  0  0  0  0  0  0  0  0  0  0
    2.3676    1.7992    0.1642 H   0  0  0  0  0  0  0  0  0  0  0  0
    2.4635   -4.2908    3.1311 C   0  0  0  0  0  0  0  0  0  0  0  0
    3.4378   -5.3953    3.5002 C   0  0  0  0  0  0  0  0  0  0  0  0
    1.1821    4.4223    1.2421 C   0  0  0  0  0  0  0  0  0  0  0  0
    1.3881    5.5400    0.2357 C   0  0  0  0  0  0  0  0  0  0  0  0
   -2.0137    0.8764    7.4729 C   0  0  0  0  0  0  0  0  0  0  0  0
   -4.3231   -0.4004    4.6942 C   0  0  0  0  0  0  0  0  0  0  0  0
   -7.0134    5.1664    3.7795 H   0  0  0  0  0  0  0  0  0  0  0  0
   -6.0761    5.5441    2.3010 H   0  0  0  0  0  0  0  0  0  0  0  0
   -5.5230    6.1539    3.8840 H   0  0  0  0  0  0  0  0  0  0  0  0
   -0.5182   -6.0567    8.7582 H   0  0  0  0  0  0  0  0  0  0  0  0
   -0.5886   -7.2337    7.4109 H   0  0  0  0  0  0  0  0  0  0  0  0
   -2.0301   -6.2594    7.8334 H   0  0  0  0  0  0  0  0  0  0  0  0
    6.6055   -2.0057   -0.8398 H   0  0  0  0  0  0  0  0  0  0  0  0
    6.5041   -0.2178   -0.7733 H   0  0  0  0  0  0  0  0  0  0  0  0
    5.4846   -1.1268   -1.9205 H   0  0  0  0  0  0  0  0  0  0  0  0
    2.7111   -3.2462    5.0050 H   0  0  0  0  0  0  0  0  0  0  0  0
    3.6494   -2.5746    3.7220 H   0  0  0  0  0  0  0  0  0  0  0  0
    2.5455   -4.0552    2.0664 H   0  0  0  0  0  0  0  0  0  0  0  0
    1.4305   -4.6331    3.2632 H   0  0  0  0  0  0  0  0  0  0  0  0
    4.4701   -5.0775    3.3459 H   0  0  0  0  0  0  0  0  0  0  0  0
    3.2777   -6.2971    2.9061 H   0  0  0  0  0  0  0  0  0  0  0  0
    3.3387   -5.6724    4.5509 H   0  0  0  0  0  0  0  0  0  0  0  0
   -2.2386    1.9333    7.6210 H   0  0  0  0  0  0  0  0  0  0  0  0
   -1.3369    0.5419    8.2602 H   0  0  0  0  0  0  0  0  0  0  0  0
   -2.9445    0.3093    7.4990 H   0  0  0  0  0  0  0  0  0  0  0  0
   -4.4921   -1.4343    4.9993 H   0  0  0  0  0  0  0  0  0  0  0  0
   -5.0384   -0.1381    3.9141 H   0  0  0  0  0  0  0  0  0  0  0  0
   -4.4418    0.2520    5.5595 H   0  0  0  0  0  0  0  0  0  0  0  0
    1.9199    6.3885    0.6708 H   0  0  0  0  0  0  0  0  0  0  0  0
    0.4341    5.9092   -0.1441 H   0  0  0  0  0  0  0  0  0  0  0  0
    1.9703    5.1961   -0.6195 H   0  0  0  0  0  0  0  0  0  0  0  0
    2.1497    4.0432    1.5946 H   0  0  0  0  0  0  0  0  0  0  0  0
    0.6890    4.8088    2.1430 H   0  0  0  0  0  0  0  0  0  0  0  0
   -0.6158    3.5969    0.3487 H   0  0  0  0  0  0  0  0  0  0  0  0
    0.8258    2.8442   -0.2056 H   0  0  0  0  0  0  0  0  0  0  0  0
  1 46  1  0  0  0  0
  1 77  1  0  0  0  0
  1 78  1  0  0  0  0
  2 44  1  0  0  0  0
  2 59  1  0  0  0  0
  2 60  1  0  0  0  0
  3  4  2  0  0  0  0
  3 38  1  0  0  0  0
  4  5  1  0  0  0  0
  4 25  1  0  0  0  0
  5  6  2  0  0  0  0
  5  9  1  0  0  0  0
  6  7  1  0  0  0  0
  7  8  2  0  0  0  0
  7 39  1  0  0  0  0
  8  3  1  0  0  0  0
  8 26  1  0  0  0  0
  9 10  1  0  0  0  0
 10 11  2  0  0  0  0
 11 12  1  0  0  0  0
 12  1  1  0  0  0  0
 12  6  1  0  0  0  0
 13 14  2  0  0  0  0
 13 20  1  0  0  0  0
 13  9  1  0  0  0  0
 14 15  1  0  0  0  0
 15  2  1  0  0  0  0
 15 16  1  0  0  0  0
 16 10  1  0  0  0  0
 16 17  2  0  0  0  0
 17 18  1  0  0  0  0
 17 42  1  0  0  0  0
 18 19  2  0  0  0  0
 18 28  1  0  0  0  0
 19 11  1  0  0  0  0
 19 43  1  0  0  0  0
 20 21  2  0  0  0  0
 21 22  1  0  0  0  0
 21 40  1  0  0  0  0
 22 23  2  0  0  0  0
 22 27  1  0  0  0  0
 23 14  1  0  0  0  0
 23 41  1  0  0  0  0
 24 48  1  0  0  0  0
 24 20  1  0  0  0  0
 25 49  1  0  0  0  0
 26 32  2  0  0  0  0
 26 33  1  0  0  0  0
 27 35  2  0  0  0  0
 27 36  1  0  0  0  0
 28 29  2  0  0  0  0
 28 30  1  0  0  0  0
 30 31  1  0  0  0  0
 31 56  1  0  0  0  0
 31 57  1  0  0  0  0
 31 58  1  0  0  0  0
 33 34  1  0  0  0  0
 34 50  1  0  0  0  0
 34 51  1  0  0  0  0
 34 52  1  0  0  0  0
 36 37  1  0  0  0  0
 37 53  1  0  0  0  0
 37 54  1  0  0  0  0
 37 55  1  0  0  0  0
 44 45  1  0  0  0  0
 44 61  1  0  0  0  0
 44 62  1  0  0  0  0
 45 63  1  0  0  0  0
 45 64  1  0  0  0  0
 45 65  1  0  0  0  0
 46 47  1  0  0  0  0
 46 75  1  0  0  0  0
 46 76  1  0  0  0  0
 47 72  1  0  0  0  0
 47 73  1  0  0  0  0
 47 74  1  0  0  0  0
 48 66  1  0  0  0  0
 48 67  1  0  0  0  0
 48 68  1  0  0  0  0
 49 69  1  0  0  0  0
 49 70  1  0  0  0  0
 49 71  1  0  0  0  0
 79124  1  0  0  0  0
 79155  1  0  0  0  0
 79156  1  0  0  0  0
 80122  1  0  0  0  0
 80137  1  0  0  0  0
 80138  1  0  0  0  0
 81 82  2  0  0  0  0
 81116  1  0  0  0  0
 82 83  1  0  0  0  0
 82103  1  0  0  0  0
 83 84  2  0  0  0  0
 83 87  1  0  0  0  0
 84 85  1  0  0  0  0
 85 86  2  0  0  0  0
 85117  1  0  0  0  0
 86 81  1  0  0  0  0
 86104  1  0  0  0  0
 87 88  1  0  0  0  0
 88 89  2  0  0  0  0
 89 90  1  0  0  0  0
 90 79  1  0  0  0  0
 90 84  1  0  0  0  0
 91 92  2  0  0  0  0
 91 98  1  0  0  0  0
 91 87  1  0  0  0  0
 92 93  1  0  0  0  0
 93 80  1  0  0  0  0
 93 94  1  0  0  0  0
 94 88  1  0  0  0  0
 94 95  2  0  0  0  0
 95 96  1  0  0  0  0
 95120  1  0  0  0  0
 96 97  2  0  0  0  0
 96106  1  0  0  0  0
 97 89  1  0  0  0  0
 97121  1  0  0  0  0
 98 99  2  0  0  0  0
 99100  1  0  0  0  0
 99118  1  0  0  0  0
100101  2  0  0  0  0
100105  1  0  0  0  0
101 92  1  0  0  0  0
101119  1  0  0  0  0
102126  1  0  0  0  0
102 98  1  0  0  0  0
103127  1  0  0  0  0
104110  2  0  0  0  0
104111  1  0  0  0  0
105113  2  0  0  0  0
105114  1  0  0  0  0
106107  2  0  0  0  0
106108  1  0  0  0  0
108109  1  0  0  0  0
109134  1  0  0  0  0
109135  1  0  0  0  0
109136  1  0  0  0  0
111112  1  0  0  0  0
112128  1  0  0  0  0
112129  1  0  0  0  0
112130  1  0  0  0  0
114115  1  0  0  0  0
115131  1  0  0  0  0
115132  1  0  0  0  0
115133  1  0  0  0  0
122123  1  0  0  0  0
122139  1  0  0  0  0
122140  1  0  0  0  0
123141  1  0  0  0  0
123142  1  0  0  0  0
123143  1  0  0  0  0
124125  1  0  0  0  0
124153  1  0  0  0  0
124154  1  0  0  0  0
125150  1  0  0  0  0
125151  1  0  0  0  0
125152  1  0  0  0  0
126144  1  0  0  0  0
126145  1  0  0  0  0
126146  1  0  0  0  0
127147  1  0  0  0  0
127148  1  0  0  0  0
127149  1  0  0  0  0
M  END
