 energy: -111.158739023523 gnorm: 0.000158936459 xtb: 6.7.1 (edcfbbe)
          03132509423D

 78 82  0     0  0            999 V2000
   -1.3629    2.2104   -0.6055 C   0  0  0  0  0  0  0  0  0  0  0  0
   -1.4177    0.8347   -0.7319 C   0  0  0  0  0  0  0  0  0  0  0  0
   -0.3002    0.0411   -0.3588 C   0  0  0  0  0  0  0  0  0  0  0  0
    0.8941    0.7256   -0.0586 C   0  0  0  0  0  0  0  0  0  0  0  0
    0.9168    2.1116    0.0636 C   0  0  0  0  0  0  0  0  0  0  0  0
   -0.2155    2.8737   -0.1619 C   0  0  0  0  0  0  0  0  0  0  0  0
   -0.3140   -1.3885   -0.3674 C   0  0  0  0  0  0  0  0  0  0  0  0
    0.9268   -2.0515   -0.5830 C   0  0  0  0  0  0  0  0  0  0  0  0
    2.1527   -1.3898   -0.3785 C   0  0  0  0  0  0  0  0  0  0  0  0
    2.1709    0.0057    0.0825 C   0  0  0  0  0  0  0  0  0  0  0  0
   -1.4703   -2.2071   -0.1725 C   0  0  0  0  0  0  0  0  0  0  0  0
   -1.4845   -3.5258   -0.6689 C   0  0  0  0  0  0  0  0  0  0  0  0
   -0.2763   -4.1355   -1.2491 C   0  0  0  0  0  0  0  0  0  0  0  0
    0.9701   -3.3943   -1.0089 C   0  0  0  0  0  0  0  0  0  0  0  0
    2.1882   -4.0168   -1.2367 C   0  0  0  0  0  0  0  0  0  0  0  0
    3.4040   -3.3738   -1.0150 C   0  0  0  0  0  0  0  0  0  0  0  0
    3.3567   -2.0574   -0.5729 C   0  0  0  0  0  0  0  0  0  0  0  0
   -2.5957   -1.7983    0.5922 C   0  0  0  0  0  0  0  0  0  0  0  0
   -3.7126   -2.6097    0.6694 C   0  0  0  0  0  0  0  0  0  0  0  0
   -3.7693   -3.8628    0.0534 C   0  0  0  0  0  0  0  0  0  0  0  0
   -2.6254   -4.3172   -0.5778 C   0  0  0  0  0  0  0  0  0  0  0  0
   -2.4697   -0.6321    1.2776 O   0  0  0  0  0  0  0  0  0  0  0  0
   -2.4750    0.1730   -1.2705 O   0  0  0  0  0  0  0  0  0  0  0  0
    3.1895    0.5495    0.4883 O   0  0  0  0  0  0  0  0  0  0  0  0
   -0.2967   -5.2148   -1.8256 O   0  0  0  0  0  0  0  0  0  0  0  0
   -3.5189   -0.1991    2.1041 C   0  0  0  0  0  0  0  0  0  0  0  0
   -3.5868    0.9007   -1.7238 C   0  0  0  0  0  0  0  0  0  0  0  0
   -5.0486   -4.6766    0.1412 C   0  0  0  0  0  0  0  0  0  0  0  0
   -4.9413   -6.0076   -0.6066 C   0  0  0  0  0  0  0  0  0  0  0  0
   -6.1975   -3.8686   -0.4795 C   0  0  0  0  0  0  0  0  0  0  0  0
   -0.2497    4.3820    0.0116 C   0  0  0  0  0  0  0  0  0  0  0  0
   -1.3460    4.7408    1.0255 C   0  0  0  0  0  0  0  0  0  0  0  0
    1.0799    4.9363    0.5288 C   0  0  0  0  0  0  0  0  0  0  0  0
   -0.5538    5.0428   -1.3407 C   0  0  0  0  0  0  0  0  0  0  0  0
    4.7025   -4.1214   -1.2597 C   0  0  0  0  0  0  0  0  0  0  0  0
    5.9360   -3.2661   -0.9600 C   0  0  0  0  0  0  0  0  0  0  0  0
    4.7560   -4.5522   -2.7324 C   0  0  0  0  0  0  0  0  0  0  0  0
    4.7394   -5.3606   -0.3540 C   0  0  0  0  0  0  0  0  0  0  0  0
    4.7094   -3.6801   -3.3814 H   0  0  0  0  0  0  0  0  0  0  0  0
    3.9280   -5.2089   -2.9835 H   0  0  0  0  0  0  0  0  0  0  0  0
    5.6850   -5.0818   -2.9324 H   0  0  0  0  0  0  0  0  0  0  0  0
    6.8353   -3.8490   -1.1482 H   0  0  0  0  0  0  0  0  0  0  0  0
    5.9508   -2.9515    0.0807 H   0  0  0  0  0  0  0  0  0  0  0  0
    5.9663   -2.3859   -1.5977 H   0  0  0  0  0  0  0  0  0  0  0  0
    5.6673   -5.9072   -0.5078 H   0  0  0  0  0  0  0  0  0  0  0  0
    3.9103   -6.0302   -0.5646 H   0  0  0  0  0  0  0  0  0  0  0  0
    4.6828   -5.0641    0.6914 H   0  0  0  0  0  0  0  0  0  0  0  0
    2.1506   -5.0364   -1.5907 H   0  0  0  0  0  0  0  0  0  0  0  0
    4.2538   -1.4952   -0.3670 H   0  0  0  0  0  0  0  0  0  0  0  0
   -2.5627   -5.3001   -1.0148 H   0  0  0  0  0  0  0  0  0  0  0  0
   -4.5671   -2.2708    1.2322 H   0  0  0  0  0  0  0  0  0  0  0  0
   -5.8889   -6.5386   -0.5414 H   0  0  0  0  0  0  0  0  0  0  0  0
   -4.1715   -6.6396   -0.1712 H   0  0  0  0  0  0  0  0  0  0  0  0
   -4.7152   -5.8467   -1.6576 H   0  0  0  0  0  0  0  0  0  0  0  0
   -6.3628   -2.9350    0.0515 H   0  0  0  0  0  0  0  0  0  0  0  0
   -7.1194   -4.4451   -0.4462 H   0  0  0  0  0  0  0  0  0  0  0  0
   -5.9728   -3.6366   -1.5183 H   0  0  0  0  0  0  0  0  0  0  0  0
   -3.1758    0.7373    2.5427 H   0  0  0  0  0  0  0  0  0  0  0  0
   -3.7265   -0.9168    2.9048 H   0  0  0  0  0  0  0  0  0  0  0  0
   -4.4365   -0.0156    1.5345 H   0  0  0  0  0  0  0  0  0  0  0  0
   -4.2786    0.1582   -2.1201 H   0  0  0  0  0  0  0  0  0  0  0  0
   -3.3152    1.6010   -2.5207 H   0  0  0  0  0  0  0  0  0  0  0  0
   -4.0738    1.4488   -0.9098 H   0  0  0  0  0  0  0  0  0  0  0  0
   -2.2309    2.7946   -0.8650 H   0  0  0  0  0  0  0  0  0  0  0  0
    1.8617    2.5533    0.3338 H   0  0  0  0  0  0  0  0  0  0  0  0
   -0.5438    6.1255   -1.2367 H   0  0  0  0  0  0  0  0  0  0  0  0
   -1.5288    4.7483   -1.7199 H   0  0  0  0  0  0  0  0  0  0  0  0
    0.1981    4.7595   -2.0739 H   0  0  0  0  0  0  0  0  0  0  0  0
    1.3428    4.4896    1.4843 H   0  0  0  0  0  0  0  0  0  0  0  0
    0.9950    6.0120    0.6695 H   0  0  0  0  0  0  0  0  0  0  0  0
    1.8824    4.7527   -0.1809 H   0  0  0  0  0  0  0  0  0  0  0  0
   -1.3716    5.8169    1.1826 H   0  0  0  0  0  0  0  0  0  0  0  0
   -1.1456    4.2574    1.9792 H   0  0  0  0  0  0  0  0  0  0  0  0
   -2.3274    4.4254    0.6819 H   0  0  0  0  0  0  0  0  0  0  0  0
   -5.3584   -4.9760    1.6152 C   0  0  0  0  0  0  0  0  0  0  0  0
   -6.2509   -5.5933    1.6903 H   0  0  0  0  0  0  0  0  0  0  0  0
   -5.5290   -4.0643    2.1817 H   0  0  0  0  0  0  0  0  0  0  0  0
   -4.5288   -5.5117    2.0713 H   0  0  0  0  0  0  0  0  0  0  0  0
  1  2  2  0  0  0  0
  1 64  1  0  0  0  0
  2  3  1  0  0  0  0
  2 23  1  0  0  0  0
  3  4  2  0  0  0  0
  3  7  1  0  0  0  0
  4  5  1  0  0  0  0
  5  6  2  0  0  0  0
  5 65  1  0  0  0  0
  6 31  1  0  0  0  0
  6  1  1  0  0  0  0
  7  8  1  0  0  0  0
  8  9  2  0  0  0  0
  9 10  1  0  0  0  0
 10  4  1  0  0  0  0
 10 24  2  0  0  0  0
 11 12  2  0  0  0  0
 11 18  1  0  0  0  0
 11  7  1  0  0  0  0
 12 13  1  0  0  0  0
 13 14  1  0  0  0  0
 13 25  2  0  0  0  0
 14  8  1  0  0  0  0
 14 15  2  0  0  0  0
 15 16  1  0  0  0  0
 15 48  1  0  0  0  0
 16 35  1  0  0  0  0
 16 17  2  0  0  0  0
 17  9  1  0  0  0  0
 17 49  1  0  0  0  0
 18 19  2  0  0  0  0
 19 20  1  0  0  0  0
 19 51  1  0  0  0  0
 20 28  1  0  0  0  0
 20 21  2  0  0  0  0
 21 12  1  0  0  0  0
 21 50  1  0  0  0  0
 22 26  1  0  0  0  0
 22 18  1  0  0  0  0
 23 27  1  0  0  0  0
 26 58  1  0  0  0  0
 26 59  1  0  0  0  0
 26 60  1  0  0  0  0
 27 61  1  0  0  0  0
 27 62  1  0  0  0  0
 27 63  1  0  0  0  0
 28 29  1  0  0  0  0
 28 30  1  0  0  0  0
 28 75  1  0  0  0  0
 29 52  1  0  0  0  0
 29 53  1  0  0  0  0
 29 54  1  0  0  0  0
 30 55  1  0  0  0  0
 30 56  1  0  0  0  0
 30 57  1  0  0  0  0
 31 32  1  0  0  0  0
 31 33  1  0  0  0  0
 31 34  1  0  0  0  0
 32 72  1  0  0  0  0
 32 73  1  0  0  0  0
 32 74  1  0  0  0  0
 33 69  1  0  0  0  0
 33 70  1  0  0  0  0
 33 71  1  0  0  0  0
 34 66  1  0  0  0  0
 34 67  1  0  0  0  0
 34 68  1  0  0  0  0
 35 36  1  0  0  0  0
 35 37  1  0  0  0  0
 35 38  1  0  0  0  0
 36 42  1  0  0  0  0
 36 43  1  0  0  0  0
 36 44  1  0  0  0  0
 37 39  1  0  0  0  0
 37 40  1  0  0  0  0
 37 41  1  0  0  0  0
 38 45  1  0  0  0  0
 38 46  1  0  0  0  0
 38 47  1  0  0  0  0
 75 76  1  0  0  0  0
 75 77  1  0  0  0  0
 75 78  1  0  0  0  0
M  END
