 energy: -109.784438581782 gnorm: 0.000203161829 xtb: 6.7.1 (edcfbbe)
          03042512223D

 58 62  0     0  0            999 V2000
   -2.1171    1.5947   -2.6575 C   0  0  0  0  0  0  0  0  0  0  0  0
   -1.9211    0.7019   -1.6117 C   0  0  0  0  0  0  0  0  0  0  0  0
   -1.1078    1.1011   -0.5184 C   0  0  0  0  0  0  0  0  0  0  0  0
   -0.2838    2.2725   -0.6652 C   0  0  0  0  0  0  0  0  0  0  0  0
   -0.4992    3.1453   -1.7637 C   0  0  0  0  0  0  0  0  0  0  0  0
   -1.4212    2.8045   -2.7051 C   0  0  0  0  0  0  0  0  0  0  0  0
   -0.9607    0.3602    0.6926 C   0  0  0  0  0  0  0  0  0  0  0  0
    0.2342    0.5648    1.4073 C   0  0  0  0  0  0  0  0  0  0  0  0
    1.0852    1.6551    1.0660 C   0  0  0  0  0  0  0  0  0  0  0  0
    0.7549    2.5253    0.1179 N   0  0  0  0  0  0  0  0  0  0  0  0
   -1.8890   -0.5619    1.2641 C   0  0  0  0  0  0  0  0  0  0  0  0
   -1.3656   -1.4982    2.2247 C   0  0  0  0  0  0  0  0  0  0  0  0
   -0.1675   -1.3696    2.7764 N   0  0  0  0  0  0  0  0  0  0  0  0
    0.5845   -0.3189    2.4687 C   0  0  0  0  0  0  0  0  0  0  0  0
    1.8295   -0.1332    3.1138 C   0  0  0  0  0  0  0  0  0  0  0  0
    2.6025    0.9704    2.8204 C   0  0  0  0  0  0  0  0  0  0  0  0
    2.2385    1.8848    1.8545 C   0  0  0  0  0  0  0  0  0  0  0  0
   -3.2890   -0.5380    1.0365 C   0  0  0  0  0  0  0  0  0  0  0  0
   -4.0562   -1.5913    1.5182 C   0  0  0  0  0  0  0  0  0  0  0  0
   -3.4985   -2.5830    2.3243 C   0  0  0  0  0  0  0  0  0  0  0  0
   -2.1941   -2.5424    2.7164 C   0  0  0  0  0  0  0  0  0  0  0  0
   -3.7902    0.5264    0.3899 O   0  0  0  0  0  0  0  0  0  0  0  0
   -2.4267   -0.5422   -1.5718 O   0  0  0  0  0  0  0  0  0  0  0  0
   -1.8039    3.9765   -4.1040 S   0  0  0  0  0  0  0  0  0  0  0  0
   -4.6280   -3.9616    2.8948 S   0  0  0  0  0  0  0  0  0  0  0  0
    0.1080    4.0308   -1.8650 H   0  0  0  0  0  0  0  0  0  0  0  0
   -2.8139    1.3745   -3.4504 H   0  0  0  0  0  0  0  0  0  0  0  0
    2.8134    2.7807    1.6769 H   0  0  0  0  0  0  0  0  0  0  0  0
    2.1745   -0.8669    3.8284 H   0  0  0  0  0  0  0  0  0  0  0  0
   -1.7756   -3.2431    3.4193 H   0  0  0  0  0  0  0  0  0  0  0  0
   -5.1051   -1.6837    1.2796 H   0  0  0  0  0  0  0  0  0  0  0  0
   -0.8344    5.0269   -3.9331 O   0  0  0  0  0  0  0  0  0  0  0  0
   -3.2457    4.4750   -3.4426 O   0  0  0  0  0  0  0  0  0  0  0  0
   -3.2220    5.5714   -2.5602 C   0  0  0  0  0  0  0  0  0  0  0  0
    4.2205    1.2044    3.7618 S   0  0  0  0  0  0  0  0  0  0  0  0
    4.3379   -0.0473    4.4651 O   0  0  0  0  0  0  0  0  0  0  0  0
    5.1976    1.1579    2.4368 O   0  0  0  0  0  0  0  0  0  0  0  0
    5.6791   -0.0895    1.9893 C   0  0  0  0  0  0  0  0  0  0  0  0
   -5.7764   -3.7676    2.0378 O   0  0  0  0  0  0  0  0  0  0  0  0
   -3.7203   -5.1968    2.2856 O   0  0  0  0  0  0  0  0  0  0  0  0
   -3.8750   -5.5396    0.9291 C   0  0  0  0  0  0  0  0  0  0  0  0
   -5.1924    0.6367    0.2330 C   0  0  0  0  0  0  0  0  0  0  0  0
   -3.1833   -1.0150   -2.6691 C   0  0  0  0  0  0  0  0  0  0  0  0
   -3.7695   -6.6197    0.8454 H   0  0  0  0  0  0  0  0  0  0  0  0
   -3.1090   -5.0435    0.3262 H   0  0  0  0  0  0  0  0  0  0  0  0
   -4.8687   -5.2422    0.5795 H   0  0  0  0  0  0  0  0  0  0  0  0
    6.7162    0.0425    1.6862 H   0  0  0  0  0  0  0  0  0  0  0  0
    5.0845   -0.4356    1.1400 H   0  0  0  0  0  0  0  0  0  0  0  0
    5.6254   -0.8239    2.7986 H   0  0  0  0  0  0  0  0  0  0  0  0
   -3.4334   -2.0463   -2.4269 H   0  0  0  0  0  0  0  0  0  0  0  0
   -2.5999   -0.9915   -3.5931 H   0  0  0  0  0  0  0  0  0  0  0  0
   -4.1031   -0.4386   -2.7990 H   0  0  0  0  0  0  0  0  0  0  0  0
   -5.3555    1.5958   -0.2554 H   0  0  0  0  0  0  0  0  0  0  0  0
   -5.7013    0.6294    1.1999 H   0  0  0  0  0  0  0  0  0  0  0  0
   -5.5893   -0.1651   -0.3950 H   0  0  0  0  0  0  0  0  0  0  0  0
   -4.1077    6.1747   -2.7528 H   0  0  0  0  0  0  0  0  0  0  0  0
   -2.3251    6.1737   -2.7346 H   0  0  0  0  0  0  0  0  0  0  0  0
   -3.2275    5.2200   -1.5244 H   0  0  0  0  0  0  0  0  0  0  0  0
  1  2  2  0  0  0  0
  1  6  1  0  0  0  0
  1 27  1  0  0  0  0
  2  3  1  0  0  0  0
  2 23  1  0  0  0  0
  3  4  2  0  0  0  0
  3  7  1  0  0  0  0
  4  5  1  0  0  0  0
  4 10  1  0  0  0  0
  5  6  2  0  0  0  0
  5 26  1  0  0  0  0
  6 24  1  0  0  0  0
  7  8  2  0  0  0  0
  7 11  1  0  0  0  0
  8  9  1  0  0  0  0
  8 14  1  0  0  0  0
  9 10  1  0  0  0  0
  9 17  2  0  0  0  0
 11 12  2  0  0  0  0
 11 18  1  0  0  0  0
 12 13  1  0  0  0  0
 12 21  1  0  0  0  0
 13 14  2  0  0  0  0
 14 15  1  0  0  0  0
 15 16  2  0  0  0  0
 15 29  1  0  0  0  0
 16 17  1  0  0  0  0
 16 35  1  0  0  0  0
 17 28  1  0  0  0  0
 18 19  2  0  0  0  0
 18 22  1  0  0  0  0
 19 20  1  0  0  0  0
 19 31  1  0  0  0  0
 20 21  2  0  0  0  0
 20 25  1  0  0  0  0
 21 30  1  0  0  0  0
 22 42  1  0  0  0  0
 23 43  1  0  0  0  0
 24 32  2  0  0  0  0
 24 33  1  0  0  0  0
 25 39  2  0  0  0  0
 25 40  1  0  0  0  0
 33 34  1  0  0  0  0
 34 56  1  0  0  0  0
 34 57  1  0  0  0  0
 34 58  1  0  0  0  0
 35 36  2  0  0  0  0
 35 37  1  0  0  0  0
 37 38  1  0  0  0  0
 38 47  1  0  0  0  0
 38 48  1  0  0  0  0
 38 49  1  0  0  0  0
 40 41  1  0  0  0  0
 41 44  1  0  0  0  0
 41 45  1  0  0  0  0
 41 46  1  0  0  0  0
 42 53  1  0  0  0  0
 42 54  1  0  0  0  0
 42 55  1  0  0  0  0
 43 50  1  0  0  0  0
 43 51  1  0  0  0  0
 43 52  1  0  0  0  0
M  CHG  1   1   1
M  END
