 energy: -279.175995272158 gnorm: 0.000077906947 xtb: 6.7.1 (edcfbbe)
          03132510523D

 95106  0     0  0            999 V2000
    0.7448    3.6309    1.8122 C   0  0  0  0  0  0  0  0  0  0  0  0
    0.9864    2.3011    1.4480 C   0  0  0  0  0  0  0  0  0  0  0  0
    2.0672    1.9841    0.5674 C   0  0  0  0  0  0  0  0  0  0  0  0
    2.5949    3.1043   -0.1801 C   0  0  0  0  0  0  0  0  0  0  0  0
    2.2497    4.4453    0.1393 C   0  0  0  0  0  0  0  0  0  0  0  0
    1.4053    4.6595    1.1767 C   0  0  0  0  0  0  0  0  0  0  0  0
    2.7575    0.7220    0.4313 C   0  0  0  0  0  0  0  0  0  0  0  0
    3.8381    0.7253   -0.4878 C   0  0  0  0  0  0  0  0  0  0  0  0
    4.0440    1.8200   -1.3813 C   0  0  0  0  0  0  0  0  0  0  0  0
    3.4509    2.9833   -1.1866 N   0  0  0  0  0  0  0  0  0  0  0  0
    2.6443   -0.4856    1.2364 C   0  0  0  0  0  0  0  0  0  0  0  0
    3.8695   -1.2500    1.3640 C   0  0  0  0  0  0  0  0  0  0  0  0
    4.8822   -1.1752    0.5117 N   0  0  0  0  0  0  0  0  0  0  0  0
    4.8097   -0.3192   -0.4964 C   0  0  0  0  0  0  0  0  0  0  0  0
    5.7810   -0.3847   -1.5222 C   0  0  0  0  0  0  0  0  0  0  0  0
    5.7971    0.6064   -2.4688 C   0  0  0  0  0  0  0  0  0  0  0  0
    4.9920    1.7107   -2.4311 C   0  0  0  0  0  0  0  0  0  0  0  0
    1.5125   -1.0824    1.8684 C   0  0  0  0  0  0  0  0  0  0  0  0
    1.7030   -2.0845    2.8357 C   0  0  0  0  0  0  0  0  0  0  0  0
    2.9520   -2.5947    3.0970 C   0  0  0  0  0  0  0  0  0  0  0  0
    4.0398   -2.2393    2.3706 C   0  0  0  0  0  0  0  0  0  0  0  0
    0.1556    1.4145    1.9576 O   0  0  0  0  0  0  0  0  0  0  0  0
    0.2455   -0.9108    1.5510 O   0  0  0  0  0  0  0  0  0  0  0  0
   -2.2208   -1.9102    2.4150 C   0  0  0  0  0  0  0  0  0  0  0  0
   -2.3473   -0.9832    1.3781 C   0  0  0  0  0  0  0  0  0  0  0  0
   -2.9948   -1.3474    0.1703 C   0  0  0  0  0  0  0  0  0  0  0  0
   -3.5551   -2.6723    0.0989 C   0  0  0  0  0  0  0  0  0  0  0  0
   -3.3119   -3.6211    1.1277 C   0  0  0  0  0  0  0  0  0  0  0  0
   -2.6687   -3.2013    2.2448 C   0  0  0  0  0  0  0  0  0  0  0  0
   -3.2383   -0.4651   -0.9436 C   0  0  0  0  0  0  0  0  0  0  0  0
   -4.2686   -0.8747   -1.8218 C   0  0  0  0  0  0  0  0  0  0  0  0
   -4.7865   -2.2048   -1.7651 C   0  0  0  0  0  0  0  0  0  0  0  0
   -4.3590   -3.0889   -0.8747 N   0  0  0  0  0  0  0  0  0  0  0  0
   -2.6139    0.8015   -1.2477 C   0  0  0  0  0  0  0  0  0  0  0  0
   -3.3607    1.6770   -2.1194 C   0  0  0  0  0  0  0  0  0  0  0  0
   -4.4337    1.3075   -2.8104 N   0  0  0  0  0  0  0  0  0  0  0  0
   -4.8240    0.0417   -2.7639 C   0  0  0  0  0  0  0  0  0  0  0  0
   -5.8569   -0.3814   -3.6350 C   0  0  0  0  0  0  0  0  0  0  0  0
   -6.2754   -1.6827   -3.5666 C   0  0  0  0  0  0  0  0  0  0  0  0
   -5.7848   -2.6080   -2.6859 C   0  0  0  0  0  0  0  0  0  0  0  0
   -1.3135    1.2415   -0.8613 C   0  0  0  0  0  0  0  0  0  0  0  0
   -0.9106    2.5402   -1.1746 C   0  0  0  0  0  0  0  0  0  0  0  0
   -1.7486    3.3985   -1.8507 C   0  0  0  0  0  0  0  0  0  0  0  0
   -2.9494    3.0191   -2.3442 C   0  0  0  0  0  0  0  0  0  0  0  0
   -1.8384    0.2305    1.5739 O   0  0  0  0  0  0  0  0  0  0  0  0
   -0.4032    0.4613   -0.2796 O   0  0  0  0  0  0  0  0  0  0  0  0
   -0.4202    0.3193    1.1972 B   0  0  0  0  0  0  0  0  0  0  0  0
    1.1272    6.3838    1.7696 S   0  0  0  0  0  0  0  0  0  0  0  0
   -0.5048    6.2299    1.9492 F   0  0  0  0  0  0  0  0  0  0  0  0
    1.3064    5.8961    3.3590 F   0  0  0  0  0  0  0  0  0  0  0  0
    0.9598    7.8902    2.3568 F   0  0  0  0  0  0  0  0  0  0  0  0
    2.7690    6.6934    1.7268 F   0  0  0  0  0  0  0  0  0  0  0  0
    0.9998    7.0448    0.2691 F   0  0  0  0  0  0  0  0  0  0  0  0
    3.0912   -3.8847    4.4094 S   0  0  0  0  0  0  0  0  0  0  0  0
    4.2128   -4.7621    3.5416 F   0  0  0  0  0  0  0  0  0  0  0  0
    4.3504   -3.0709    5.1457 F   0  0  0  0  0  0  0  0  0  0  0  0
    3.2515   -5.0028    5.5702 F   0  0  0  0  0  0  0  0  0  0  0  0
    2.0251   -3.1119    5.4081 F   0  0  0  0  0  0  0  0  0  0  0  0
    1.8919   -4.8116    3.7642 F   0  0  0  0  0  0  0  0  0  0  0  0
    7.0354    0.4773   -3.8366 S   0  0  0  0  0  0  0  0  0  0  0  0
    5.9196    0.9065   -4.9891 F   0  0  0  0  0  0  0  0  0  0  0  0
    6.6886   -1.1279   -4.0966 F   0  0  0  0  0  0  0  0  0  0  0  0
    8.1148    0.3561   -5.0370 F   0  0  0  0  0  0  0  0  0  0  0  0
    8.2594    0.0354   -2.8019 F   0  0  0  0  0  0  0  0  0  0  0  0
    7.4927    2.0671   -3.6930 F   0  0  0  0  0  0  0  0  0  0  0  0
   -2.3622   -4.3988    3.6212 S   0  0  0  0  0  0  0  0  0  0  0  0
   -1.7250   -5.5299    2.5871 F   0  0  0  0  0  0  0  0  0  0  0  0
   -3.8640   -5.1069    3.4463 F   0  0  0  0  0  0  0  0  0  0  0  0
   -2.1071   -5.4485    4.8229 F   0  0  0  0  0  0  0  0  0  0  0  0
   -2.9978   -3.3649    4.7600 F   0  0  0  0  0  0  0  0  0  0  0  0
   -0.8524   -3.7880    3.9235 F   0  0  0  0  0  0  0  0  0  0  0  0
   -1.1535    5.1329   -2.0553 S   0  0  0  0  0  0  0  0  0  0  0  0
   -1.5313    5.1634   -3.6805 F   0  0  0  0  0  0  0  0  0  0  0  0
   -2.6502    5.7635   -1.7096 F   0  0  0  0  0  0  0  0  0  0  0  0
   -0.6355    6.6470   -2.2241 F   0  0  0  0  0  0  0  0  0  0  0  0
   -0.7222    5.2047   -0.4498 F   0  0  0  0  0  0  0  0  0  0  0  0
    0.3976    4.6465   -2.4258 F   0  0  0  0  0  0  0  0  0  0  0  0
   -7.6105   -2.2209   -4.7296 S   0  0  0  0  0  0  0  0  0  0  0  0
   -6.8929   -1.4714   -6.0289 F   0  0  0  0  0  0  0  0  0  0  0  0
   -8.5175   -0.8552   -4.4517 F   0  0  0  0  0  0  0  0  0  0  0  0
   -8.7783   -2.6917   -5.7482 F   0  0  0  0  0  0  0  0  0  0  0  0
   -8.4468   -3.0169   -3.5332 F   0  0  0  0  0  0  0  0  0  0  0  0
   -6.8223   -3.6345   -5.1099 F   0  0  0  0  0  0  0  0  0  0  0  0
   -3.6935   -4.6196    1.0102 H   0  0  0  0  0  0  0  0  0  0  0  0
   -6.1473   -3.6202   -2.6544 H   0  0  0  0  0  0  0  0  0  0  0  0
   -6.2815    0.3238   -4.3272 H   0  0  0  0  0  0  0  0  0  0  0  0
   -1.7429   -1.5956    3.3259 H   0  0  0  0  0  0  0  0  0  0  0  0
    0.0697    2.8682   -0.8837 H   0  0  0  0  0  0  0  0  0  0  0  0
    5.0772    2.5135   -3.1423 H   0  0  0  0  0  0  0  0  0  0  0  0
    0.8357   -2.4815    3.3319 H   0  0  0  0  0  0  0  0  0  0  0  0
    6.4841   -1.1988   -1.5304 H   0  0  0  0  0  0  0  0  0  0  0  0
    2.6898    5.2386   -0.4372 H   0  0  0  0  0  0  0  0  0  0  0  0
    4.9988   -2.7158    2.4642 H   0  0  0  0  0  0  0  0  0  0  0  0
   -3.5770    3.6617   -2.9352 H   0  0  0  0  0  0  0  0  0  0  0  0
   -0.0124    3.8275    2.5511 H   0  0  0  0  0  0  0  0  0  0  0  0
  1  2  2  0  0  0  0
  1 95  1  0  0  0  0
  2  3  1  0  0  0  0
  3  4  2  0  0  0  0
  3  7  1  0  0  0  0
  4  5  1  0  0  0  0
  5  6  2  0  0  0  0
  5 92  1  0  0  0  0
  6 48  1  0  0  0  0
  6  1  1  0  0  0  0
  7 11  2  0  0  0  0
  8  7  1  0  0  0  0
  8  9  1  0  0  0  0
  9 10  2  0  0  0  0
 10  4  1  0  0  0  0
 11 12  1  0  0  0  0
 11 18  1  0  0  0  0
 12 13  2  0  0  0  0
 13 14  1  0  0  0  0
 14  8  1  0  0  0  0
 14 15  2  0  0  0  0
 15 16  1  0  0  0  0
 15 91  1  0  0  0  0
 16 60  1  0  0  0  0
 16 17  2  0  0  0  0
 17  9  1  0  0  0  0
 17 89  1  0  0  0  0
 18 19  3  0  0  0  0
 19 20  1  0  0  0  0
 19 90  1  0  0  0  0
 20 54  1  0  0  0  0
 20 21  2  0  0  0  0
 21 12  1  0  0  0  0
 21 93  1  0  0  0  0
 22  2  1  0  0  0  0
 23 18  1  0  0  0  0
 24 25  2  0  0  0  0
 24 87  1  0  0  0  0
 25 26  1  0  0  0  0
 25 45  1  0  0  0  0
 26 27  2  0  0  0  0
 26 30  1  0  0  0  0
 27 28  1  0  0  0  0
 28 29  2  0  0  0  0
 28 84  1  0  0  0  0
 29 66  1  0  0  0  0
 29 24  1  0  0  0  0
 30 34  2  0  0  0  0
 31 30  1  0  0  0  0
 31 32  1  0  0  0  0
 32 33  2  0  0  0  0
 33 27  1  0  0  0  0
 34 35  1  0  0  0  0
 34 41  1  0  0  0  0
 35 36  2  0  0  0  0
 36 37  1  0  0  0  0
 37 31  1  0  0  0  0
 37 38  2  0  0  0  0
 38 39  1  0  0  0  0
 38 86  1  0  0  0  0
 39 78  1  0  0  0  0
 39 40  2  0  0  0  0
 40 32  1  0  0  0  0
 40 85  1  0  0  0  0
 41 42  2  0  0  0  0
 41 46  1  0  0  0  0
 42 43  1  0  0  0  0
 42 88  1  0  0  0  0
 43 72  1  0  0  0  0
 43 44  2  0  0  0  0
 44 35  1  0  0  0  0
 44 94  1  0  0  0  0
 47 46  1  0  0  0  0
 47 22  1  0  0  0  0
 47 45  1  0  0  0  0
 47 23  1  0  0  0  0
 48 49  1  0  0  0  0
 48 50  1  0  0  0  0
 48 51  1  0  0  0  0
 48 52  1  0  0  0  0
 48 53  1  0  0  0  0
 54 55  1  0  0  0  0
 54 56  1  0  0  0  0
 54 57  1  0  0  0  0
 54 58  1  0  0  0  0
 54 59  1  0  0  0  0
 60 61  1  0  0  0  0
 60 62  1  0  0  0  0
 60 63  1  0  0  0  0
 60 64  1  0  0  0  0
 60 65  1  0  0  0  0
 66 67  1  0  0  0  0
 66 68  1  0  0  0  0
 66 69  1  0  0  0  0
 66 70  1  0  0  0  0
 66 71  1  0  0  0  0
 72 73  1  0  0  0  0
 72 74  1  0  0  0  0
 72 75  1  0  0  0  0
 72 76  1  0  0  0  0
 72 77  1  0  0  0  0
 78 79  1  0  0  0  0
 78 80  1  0  0  0  0
 78 81  1  0  0  0  0
 78 82  1  0  0  0  0
 78 83  1  0  0  0  0
M  CHG  1   1  -1
M  END
