 energy: -135.073763602246 gnorm: 0.000811957017 xtb: 6.6.1 (8d0f1dd)
          11142411213D

 90 97  0     0  0            999 V2000
   -5.0662   -0.2007   -0.6082 C   0  0  0  0  0  0  0  0  0  0  0  0
   -4.8325   -1.5516   -0.5933 C   0  0  0  0  0  0  0  0  0  0  0  0
   -3.5552   -2.0032   -0.2590 C   0  0  0  0  0  0  0  0  0  0  0  0
   -2.5155   -1.1288   -0.0437 C   0  0  0  0  0  0  0  0  0  0  0  0
   -2.7108    0.2529   -0.1722 C   0  0  0  0  0  0  0  0  0  0  0  0
   -4.0344    0.7221   -0.3608 C   0  0  0  0  0  0  0  0  0  0  0  0
   -1.6333    1.1965   -0.0309 C   0  0  0  0  0  0  0  0  0  0  0  0
   -1.9721    2.5472    0.2491 C   0  0  0  0  0  0  0  0  0  0  0  0
   -3.3194    2.9707    0.1291 C   0  0  0  0  0  0  0  0  0  0  0  0
   -4.3069    2.1077   -0.2235 C   0  0  0  0  0  0  0  0  0  0  0  0
   -0.2579    0.8748   -0.0970 C   0  0  0  0  0  0  0  0  0  0  0  0
    0.6710    1.7946    0.4538 C   0  0  0  0  0  0  0  0  0  0  0  0
    0.3129    3.0906    0.8375 C   0  0  0  0  0  0  0  0  0  0  0  0
   -0.9873    3.4703    0.6644 C   0  0  0  0  0  0  0  0  0  0  0  0
    0.5261   -0.2710   -0.5080 C   0  0  0  0  0  0  0  0  0  0  0  0
    1.8286   -0.0493   -0.0012 C   0  0  0  0  0  0  0  0  0  0  0  0
    0.3098   -1.4271   -1.2921 C   0  0  0  0  0  0  0  0  0  0  0  0
    1.2729   -2.4671   -1.2031 C   0  0  0  0  0  0  0  0  0  0  0  0
    2.5068   -2.2499   -0.5562 C   0  0  0  0  0  0  0  0  0  0  0  0
    2.8225   -1.0305   -0.0208 C   0  0  0  0  0  0  0  0  0  0  0  0
   -0.7920   -1.6115   -2.1997 C   0  0  0  0  0  0  0  0  0  0  0  0
   -1.0760   -2.9067   -2.6962 C   0  0  0  0  0  0  0  0  0  0  0  0
   -0.1894   -3.9778   -2.4119 C   0  0  0  0  0  0  0  0  0  0  0  0
    0.9744   -3.7424   -1.7549 C   0  0  0  0  0  0  0  0  0  0  0  0
   -2.6257   -0.7099   -3.5238 C   0  0  0  0  0  0  0  0  0  0  0  0
   -2.9871   -2.0257   -3.8916 C   0  0  0  0  0  0  0  0  0  0  0  0
   -2.2109   -3.0840   -3.5048 C   0  0  0  0  0  0  0  0  0  0  0  0
   -1.5395   -0.5302   -2.6730 C   0  0  0  0  0  0  0  0  0  0  0  0
   -3.3374    0.4365   -4.0598 C   0  0  0  0  0  0  0  0  0  0  0  0
   -4.0568    2.6330   -4.4400 C   0  0  0  0  0  0  0  0  0  0  0  0
   -4.5928    1.7212   -5.5562 C   0  0  0  0  0  0  0  0  0  0  0  0
   -5.1164    2.9934   -3.3935 C   0  0  0  0  0  0  0  0  0  0  0  0
   -3.3355    3.8971   -4.8872 C   0  0  0  0  0  0  0  0  0  0  0  0
   -6.0729    1.8454   -5.8872 C   0  0  0  0  0  0  0  0  0  0  0  0
   -3.7712    1.7923   -6.8508 C   0  0  0  0  0  0  0  0  0  0  0  0
   -3.2402   -3.8724   -0.1031 Br  0  0  0  0  0  0  0  0  0  0  0  0
    1.9111    1.2216    0.5069 N   0  0  0  0  0  0  0  0  0  0  0  0
    5.4619    2.0013    5.7968 Si  0  0  0  0  0  0  0  0  0  0  0  0
    3.9658    1.5280    4.6718 C   0  0  0  0  0  0  0  0  0  0  0  0
    4.1599    1.9161    3.2229 C   0  0  0  0  0  0  0  0  0  0  0  0
    3.0286    1.4654    2.4944 O   0  0  0  0  0  0  0  0  0  0  0  0
    4.9125    1.6279    7.5833 C   0  0  0  0  0  0  0  0  0  0  0  0
    5.8577    3.8534    5.5752 C   0  0  0  0  0  0  0  0  0  0  0  0
    6.9640    0.9353    5.3041 C   0  0  0  0  0  0  0  0  0  0  0  0
    3.0653    1.7870    1.1318 C   0  0  0  0  0  0  0  0  0  0  0  0
   -3.1000    1.7317   -3.7607 N   0  0  0  0  0  0  0  0  0  0  0  0
   -2.2609    2.1902   -2.9684 O   0  0  0  0  0  0  0  0  0  0  0  0
   -4.3129    0.3838   -4.9942 N   0  0  0  0  0  0  0  0  0  0  0  0
   -4.8871   -0.6145   -5.4371 O   0  0  0  0  0  0  0  0  0  0  0  0
   -2.7068    1.6775   -6.6568 H   0  0  0  0  0  0  0  0  0  0  0  0
   -3.9439    2.7380   -7.3553 H   0  0  0  0  0  0  0  0  0  0  0  0
   -4.0860    0.9880   -7.5128 H   0  0  0  0  0  0  0  0  0  0  0  0
   -6.7006    1.6704   -5.0189 H   0  0  0  0  0  0  0  0  0  0  0  0
   -6.3335    1.1058   -6.6402 H   0  0  0  0  0  0  0  0  0  0  0  0
   -6.2814    2.8338   -6.2852 H   0  0  0  0  0  0  0  0  0  0  0  0
   -2.4943    3.6769   -5.5371 H   0  0  0  0  0  0  0  0  0  0  0  0
   -2.9537    4.4167   -4.0118 H   0  0  0  0  0  0  0  0  0  0  0  0
   -4.0267    4.5525   -5.4083 H   0  0  0  0  0  0  0  0  0  0  0  0
   -5.6326    2.1067   -3.0318 H   0  0  0  0  0  0  0  0  0  0  0  0
   -5.8400    3.6865   -3.8116 H   0  0  0  0  0  0  0  0  0  0  0  0
   -4.6228    3.4711   -2.5500 H   0  0  0  0  0  0  0  0  0  0  0  0
   -3.8526   -2.2015   -4.5066 H   0  0  0  0  0  0  0  0  0  0  0  0
   -2.4617   -4.0809   -3.8334 H   0  0  0  0  0  0  0  0  0  0  0  0
   -1.2262    0.4626   -2.4038 H   0  0  0  0  0  0  0  0  0  0  0  0
   -0.4349   -4.9629   -2.7767 H   0  0  0  0  0  0  0  0  0  0  0  0
    1.6939   -4.5348   -1.6135 H   0  0  0  0  0  0  0  0  0  0  0  0
    3.2175   -3.0607   -0.5176 H   0  0  0  0  0  0  0  0  0  0  0  0
    3.7901   -0.8510    0.4184 H   0  0  0  0  0  0  0  0  0  0  0  0
    3.9734    1.3800    0.6561 H   0  0  0  0  0  0  0  0  0  0  0  0
    3.0645    2.8802    0.9856 H   0  0  0  0  0  0  0  0  0  0  0  0
    4.2535    3.0060    3.1177 H   0  0  0  0  0  0  0  0  0  0  0  0
    5.0677    1.4543    2.8086 H   0  0  0  0  0  0  0  0  0  0  0  0
    3.7974    0.4531    4.7186 H   0  0  0  0  0  0  0  0  0  0  0  0
    3.0582    2.0054    5.0378 H   0  0  0  0  0  0  0  0  0  0  0  0
    7.2798    1.1251    4.2825 H   0  0  0  0  0  0  0  0  0  0  0  0
    6.7458   -0.1256    5.3902 H   0  0  0  0  0  0  0  0  0  0  0  0
    7.8136    1.1442    5.9472 H   0  0  0  0  0  0  0  0  0  0  0  0
    4.0645    2.2388    7.8784 H   0  0  0  0  0  0  0  0  0  0  0  0
    5.7203    1.8302    8.2790 H   0  0  0  0  0  0  0  0  0  0  0  0
    4.6273    0.5871    7.7042 H   0  0  0  0  0  0  0  0  0  0  0  0
    6.2491    4.0672    4.5846 H   0  0  0  0  0  0  0  0  0  0  0  0
    6.6056    4.1765    6.2931 H   0  0  0  0  0  0  0  0  0  0  0  0
    4.9776    4.4729    5.7243 H   0  0  0  0  0  0  0  0  0  0  0  0
    1.0424    3.7731    1.2419 H   0  0  0  0  0  0  0  0  0  0  0  0
   -1.2928    4.4807    0.8883 H   0  0  0  0  0  0  0  0  0  0  0  0
   -3.5425    4.0111    0.3152 H   0  0  0  0  0  0  0  0  0  0  0  0
   -5.3271    2.4458   -0.3333 H   0  0  0  0  0  0  0  0  0  0  0  0
   -6.0658    0.1690   -0.7854 H   0  0  0  0  0  0  0  0  0  0  0  0
   -5.6235   -2.2582   -0.7886 H   0  0  0  0  0  0  0  0  0  0  0  0
   -1.5576   -1.5069    0.2705 H   0  0  0  0  0  0  0  0  0  0  0  0
  1  2  2  0  0  0  0
  1 88  1  0  0  0  0
  2  3  1  0  0  0  0
  2 89  1  0  0  0  0
  3  4  2  0  0  0  0
  3 36  1  0  0  0  0
  4  5  1  0  0  0  0
  4 90  1  0  0  0  0
  5  6  2  0  0  0  0
  5  7  1  0  0  0  0
  6  1  1  0  0  0  0
  7  8  2  0  0  0  0
  7 11  1  0  0  0  0
  8  9  1  0  0  0  0
  9 10  2  0  0  0  0
  9 86  1  0  0  0  0
 10  6  1  0  0  0  0
 10 87  1  0  0  0  0
 11 12  2  0  0  0  0
 11 15  1  0  0  0  0
 12 37  1  0  0  0  0
 12 13  1  0  0  0  0
 13 14  2  0  0  0  0
 13 84  1  0  0  0  0
 14  8  1  0  0  0  0
 14 85  1  0  0  0  0
 15 16  1  0  0  0  0
 15 17  2  0  0  0  0
 16 37  1  0  0  0  0
 17 18  1  0  0  0  0
 17 21  1  0  0  0  0
 18 19  2  0  0  0  0
 19 20  1  0  0  0  0
 19 67  1  0  0  0  0
 20 16  2  0  0  0  0
 20 68  1  0  0  0  0
 21 22  2  0  0  0  0
 21 28  1  0  0  0  0
 22 23  1  0  0  0  0
 23 24  2  0  0  0  0
 23 65  1  0  0  0  0
 24 18  1  0  0  0  0
 24 66  1  0  0  0  0
 25 26  1  0  0  0  0
 25 29  1  0  0  0  0
 26 27  2  0  0  0  0
 26 62  1  0  0  0  0
 27 22  1  0  0  0  0
 27 63  1  0  0  0  0
 28 25  2  0  0  0  0
 28 64  1  0  0  0  0
 29 46  1  0  0  0  0
 29 48  2  0  0  0  0
 30 46  1  0  0  0  0
 30 31  1  0  0  0  0
 30 32  1  0  0  0  0
 30 33  1  0  0  0  0
 31 48  1  0  0  0  0
 31 34  1  0  0  0  0
 31 35  1  0  0  0  0
 32 59  1  0  0  0  0
 32 60  1  0  0  0  0
 32 61  1  0  0  0  0
 33 56  1  0  0  0  0
 33 57  1  0  0  0  0
 33 58  1  0  0  0  0
 34 53  1  0  0  0  0
 34 54  1  0  0  0  0
 34 55  1  0  0  0  0
 35 50  1  0  0  0  0
 35 51  1  0  0  0  0
 35 52  1  0  0  0  0
 37 45  1  0  0  0  0
 38 39  1  0  0  0  0
 38 42  1  0  0  0  0
 38 43  1  0  0  0  0
 38 44  1  0  0  0  0
 39 40  1  0  0  0  0
 39 73  1  0  0  0  0
 39 74  1  0  0  0  0
 40 41  1  0  0  0  0
 40 71  1  0  0  0  0
 40 72  1  0  0  0  0
 41 45  1  0  0  0  0
 42 78  1  0  0  0  0
 42 79  1  0  0  0  0
 42 80  1  0  0  0  0
 43 81  1  0  0  0  0
 43 82  1  0  0  0  0
 43 83  1  0  0  0  0
 44 75  1  0  0  0  0
 44 76  1  0  0  0  0
 44 77  1  0  0  0  0
 45 69  1  0  0  0  0
 45 70  1  0  0  0  0
 46 47  1  0  0  0  0
 48 49  2  0  0  0  0
M  CHG  1   1   1
M  END
