 energy: -271.248650627253 gnorm: 0.000498445778 xtb: 6.6.1 (8d0f1dd)
          11142411393D

180194  0     0  0            999 V2000
   -5.5095    0.3288   -1.4671 C   0  0  0  0  0  0  0  0  0  0  0  0
   -5.7298   -1.0039   -1.2436 C   0  0  0  0  0  0  0  0  0  0  0  0
   -4.7444   -1.7337   -0.5814 C   0  0  0  0  0  0  0  0  0  0  0  0
   -3.5427   -1.1859   -0.2279 C   0  0  0  0  0  0  0  0  0  0  0  0
   -3.2662    0.1556   -0.5345 C   0  0  0  0  0  0  0  0  0  0  0  0
   -4.3025    0.9411   -1.0904 C   0  0  0  0  0  0  0  0  0  0  0  0
   -2.0027    0.7593   -0.2256 C   0  0  0  0  0  0  0  0  0  0  0  0
   -1.9323    2.1702   -0.1921 C   0  0  0  0  0  0  0  0  0  0  0  0
   -3.0036    2.9349   -0.7267 C   0  0  0  0  0  0  0  0  0  0  0  0
   -4.1204    2.3434   -1.2126 C   0  0  0  0  0  0  0  0  0  0  0  0
   -0.8180    0.0481    0.0912 C   0  0  0  0  0  0  0  0  0  0  0  0
    0.2051    0.7330    0.7790 C   0  0  0  0  0  0  0  0  0  0  0  0
    0.2107    2.1192    0.9365 C   0  0  0  0  0  0  0  0  0  0  0  0
   -0.8173    2.8236    0.3733 C   0  0  0  0  0  0  0  0  0  0  0  0
   -0.3441   -1.3032   -0.0714 C   0  0  0  0  0  0  0  0  0  0  0  0
    0.8475   -1.3964    0.6847 C   0  0  0  0  0  0  0  0  0  0  0  0
   -0.7456   -2.4278   -0.8335 C   0  0  0  0  0  0  0  0  0  0  0  0
   -0.1600   -3.6747   -0.5124 C   0  0  0  0  0  0  0  0  0  0  0  0
    0.9691   -3.7355    0.3291 C   0  0  0  0  0  0  0  0  0  0  0  0
    1.5259   -2.6031    0.8606 C   0  0  0  0  0  0  0  0  0  0  0  0
   -1.6674   -2.3829   -1.9365 C   0  0  0  0  0  0  0  0  0  0  0  0
   -2.2445   -3.5864   -2.4052 C   0  0  0  0  0  0  0  0  0  0  0  0
   -1.7797   -4.8278   -1.8966 C   0  0  0  0  0  0  0  0  0  0  0  0
   -0.7237   -4.8665   -1.0485 C   0  0  0  0  0  0  0  0  0  0  0  0
   -2.8846   -1.1434   -3.6371 C   0  0  0  0  0  0  0  0  0  0  0  0
   -3.5677   -2.3261   -3.9897 C   0  0  0  0  0  0  0  0  0  0  0  0
   -3.2277   -3.5157   -3.4071 C   0  0  0  0  0  0  0  0  0  0  0  0
   -1.9504   -1.1921   -2.6150 C   0  0  0  0  0  0  0  0  0  0  0  0
   -3.1480    0.1030   -4.3358 C   0  0  0  0  0  0  0  0  0  0  0  0
   -2.8384    2.2500   -5.1726 C   0  0  0  0  0  0  0  0  0  0  0  0
   -4.1907    1.7019   -5.6658 C   0  0  0  0  0  0  0  0  0  0  0  0
   -2.8679    3.6268   -4.5178 C   0  0  0  0  0  0  0  0  0  0  0  0
   -1.7342    2.2365   -6.2390 C   0  0  0  0  0  0  0  0  0  0  0  0
   -5.4060    2.2896   -4.9384 C   0  0  0  0  0  0  0  0  0  0  0  0
   -4.4367    1.7790   -7.1698 C   0  0  0  0  0  0  0  0  0  0  0  0
   -5.0908   -3.5537   -0.1613 Br  0  0  0  0  0  0  0  0  0  0  0  0
    1.1823   -0.1539    1.1622 N   0  0  0  0  0  0  0  0  0  0  0  0
    3.4431    3.6587    5.6713 Si  0  0  0  0  0  0  0  0  0  0  0  0
    2.2645    2.4086    4.8573 C   0  0  0  0  0  0  0  0  0  0  0  0
    2.9094    1.5900    3.7547 C   0  0  0  0  0  0  0  0  0  0  0  0
    1.9107    0.8359    3.1088 O   0  0  0  0  0  0  0  0  0  0  0  0
    2.5550    4.5080    7.1276 C   0  0  0  0  0  0  0  0  0  0  0  0
    4.0015    4.9985    4.4221 C   0  0  0  0  0  0  0  0  0  0  0  0
    5.0098    2.7453    6.2899 C   0  0  0  0  0  0  0  0  0  0  0  0
    2.3270    0.2075    1.9310 C   0  0  0  0  0  0  0  0  0  0  0  0
   -2.4496    1.2386   -4.1684 N   0  0  0  0  0  0  0  0  0  0  0  0
   -1.4145    1.4575   -3.4310 O   0  0  0  0  0  0  0  0  0  0  0  0
   -4.1092    0.2848   -5.2557 N   0  0  0  0  0  0  0  0  0  0  0  0
   -5.0163   -0.5376   -5.6619 O   0  0  0  0  0  0  0  0  0  0  0  0
   -3.6328    1.3161   -7.7333 H   0  0  0  0  0  0  0  0  0  0  0  0
   -4.5505    2.8135   -7.4844 H   0  0  0  0  0  0  0  0  0  0  0  0
   -5.3516    1.2318   -7.3866 H   0  0  0  0  0  0  0  0  0  0  0  0
   -5.2707    2.2196   -3.8628 H   0  0  0  0  0  0  0  0  0  0  0  0
   -6.2771    1.6961   -5.2100 H   0  0  0  0  0  0  0  0  0  0  0  0
   -5.5759    3.3251   -5.2224 H   0  0  0  0  0  0  0  0  0  0  0  0
   -1.6637    1.2579   -6.7090 H   0  0  0  0  0  0  0  0  0  0  0  0
   -0.7884    2.4382   -5.7396 H   0  0  0  0  0  0  0  0  0  0  0  0
   -1.9066    2.9949   -6.9983 H   0  0  0  0  0  0  0  0  0  0  0  0
   -3.5915    3.6700   -3.7112 H   0  0  0  0  0  0  0  0  0  0  0  0
   -3.0926    4.3950   -5.2539 H   0  0  0  0  0  0  0  0  0  0  0  0
   -1.8858    3.8106   -4.0876 H   0  0  0  0  0  0  0  0  0  0  0  0
   -4.3332   -2.2780   -4.7477 H   0  0  0  0  0  0  0  0  0  0  0  0
   -3.7096   -4.4309   -3.7231 H   0  0  0  0  0  0  0  0  0  0  0  0
   -1.4020   -0.2987   -2.3702 H   0  0  0  0  0  0  0  0  0  0  0  0
   -2.2477   -5.7370   -2.2468 H   0  0  0  0  0  0  0  0  0  0  0  0
   -0.3037   -5.8118   -0.7320 H   0  0  0  0  0  0  0  0  0  0  0  0
    1.4183   -4.7008    0.5175 H   0  0  0  0  0  0  0  0  0  0  0  0
    2.4383   -2.6525    1.4358 H   0  0  0  0  0  0  0  0  0  0  0  0
    2.9158   -0.6962    2.1544 H   0  0  0  0  0  0  0  0  0  0  0  0
    2.9692    0.9010    1.3463 H   0  0  0  0  0  0  0  0  0  0  0  0
    3.4020    2.2481    3.0179 H   0  0  0  0  0  0  0  0  0  0  0  0
    3.6802    0.9193    4.1675 H   0  0  0  0  0  0  0  0  0  0  0  0
    1.8785    1.7214    5.6065 H   0  0  0  0  0  0  0  0  0  0  0  0
    1.3889    2.9090    4.4447 H   0  0  0  0  0  0  0  0  0  0  0  0
    5.7040    2.5635    5.4748 H   0  0  0  0  0  0  0  0  0  0  0  0
    4.7478    1.7807    6.7120 H   0  0  0  0  0  0  0  0  0  0  0  0
    5.5409    3.3099    7.0507 H   0  0  0  0  0  0  0  0  0  0  0  0
    2.0919    3.7780    7.7826 H   0  0  0  0  0  0  0  0  0  0  0  0
    1.7612    5.1529    6.7666 H   0  0  0  0  0  0  0  0  0  0  0  0
    3.2322    5.1161    7.7199 H   0  0  0  0  0  0  0  0  0  0  0  0
    4.5833    4.5703    3.6110 H   0  0  0  0  0  0  0  0  0  0  0  0
    4.6151    5.7591    4.8963 H   0  0  0  0  0  0  0  0  0  0  0  0
    3.1444    5.4981    3.9811 H   0  0  0  0  0  0  0  0  0  0  0  0
    1.0147    2.6154    1.4559 H   0  0  0  0  0  0  0  0  0  0  0  0
   -0.8008    3.9053    0.3793 H   0  0  0  0  0  0  0  0  0  0  0  0
   -2.8941    4.0118   -0.7535 H   0  0  0  0  0  0  0  0  0  0  0  0
   -4.9225    2.9350   -1.6357 H   0  0  0  0  0  0  0  0  0  0  0  0
   -6.2838    0.9293   -1.9247 H   0  0  0  0  0  0  0  0  0  0  0  0
   -6.6534   -1.4773   -1.5408 H   0  0  0  0  0  0  0  0  0  0  0  0
   -2.8201   -1.7685    0.3173 H   0  0  0  0  0  0  0  0  0  0  0  0
   -4.0524   -0.8369    6.5754 C   0  0  0  0  0  0  0  0  0  0  0  0
   -3.6412   -2.0809    6.1747 C   0  0  0  0  0  0  0  0  0  0  0  0
   -2.3329   -2.4692    6.4607 C   0  0  0  0  0  0  0  0  0  0  0  0
   -1.4284   -1.6109    7.0267 C   0  0  0  0  0  0  0  0  0  0  0  0
   -1.8047   -0.2935    7.3351 C   0  0  0  0  0  0  0  0  0  0  0  0
   -3.1679    0.0596    7.1995 C   0  0  0  0  0  0  0  0  0  0  0  0
   -0.8733    0.6564    7.8742 C   0  0  0  0  0  0  0  0  0  0  0  0
   -1.3930    1.7713    8.5703 C   0  0  0  0  0  0  0  0  0  0  0  0
   -2.7790    2.0694    8.4692 C   0  0  0  0  0  0  0  0  0  0  0  0
   -3.6215    1.2852    7.7562 C   0  0  0  0  0  0  0  0  0  0  0  0
    0.5357    0.5286    7.8129 C   0  0  0  0  0  0  0  0  0  0  0  0
    1.3149    1.2760    8.7205 C   0  0  0  0  0  0  0  0  0  0  0  0
    0.7769    2.2870    9.5172 C   0  0  0  0  0  0  0  0  0  0  0  0
   -0.5547    2.5708    9.3731 C   0  0  0  0  0  0  0  0  0  0  0  0
    1.4666   -0.2775    7.0624 C   0  0  0  0  0  0  0  0  0  0  0  0
    2.7220   -0.1119    7.6877 C   0  0  0  0  0  0  0  0  0  0  0  0
    1.3887   -1.0798    5.8969 C   0  0  0  0  0  0  0  0  0  0  0  0
    2.4625   -1.9673    5.6539 C   0  0  0  0  0  0  0  0  0  0  0  0
    3.6626   -1.8508    6.3834 C   0  0  0  0  0  0  0  0  0  0  0  0
    3.8299   -0.8868    7.3434 C   0  0  0  0  0  0  0  0  0  0  0  0
    0.3157   -1.0323    4.9430 C   0  0  0  0  0  0  0  0  0  0  0  0
    0.1605   -2.1034    4.0326 C   0  0  0  0  0  0  0  0  0  0  0  0
    1.1516   -3.1183    3.9742 C   0  0  0  0  0  0  0  0  0  0  0  0
    2.2978   -3.0003    4.6880 C   0  0  0  0  0  0  0  0  0  0  0  0
   -1.6096    0.0760    3.9630 C   0  0  0  0  0  0  0  0  0  0  0  0
   -1.8357   -1.0604    3.1596 C   0  0  0  0  0  0  0  0  0  0  0  0
   -0.9569   -2.1079    3.1803 C   0  0  0  0  0  0  0  0  0  0  0  0
   -0.5424    0.0675    4.8453 C   0  0  0  0  0  0  0  0  0  0  0  0
   -2.4951    1.2246    3.8916 C   0  0  0  0  0  0  0  0  0  0  0  0
   -3.3117    3.3843    4.1514 C   0  0  0  0  0  0  0  0  0  0  0  0
   -4.3827    2.5138    3.4681 C   0  0  0  0  0  0  0  0  0  0  0  0
   -3.7690    4.1831    5.3677 C   0  0  0  0  0  0  0  0  0  0  0  0
   -2.5763    4.3266    3.1900 C   0  0  0  0  0  0  0  0  0  0  0  0
   -5.5228    2.0816    4.3995 C   0  0  0  0  0  0  0  0  0  0  0  0
   -4.9885    3.0749    2.1872 C   0  0  0  0  0  0  0  0  0  0  0  0
   -1.7977   -4.2557    6.0859 Br  0  0  0  0  0  0  0  0  0  0  0  0
    2.6285    0.8740    8.6459 N   0  0  0  0  0  0  0  0  0  0  0  0
    5.1942    1.6330   14.4677 Si  0  0  0  0  0  0  0  0  0  0  0  0
    4.1250    0.8633   13.0828 C   0  0  0  0  0  0  0  0  0  0  0  0
    4.4044    1.4458   11.7101 C   0  0  0  0  0  0  0  0  0  0  0  0
    3.5149    0.8676   10.7832 O   0  0  0  0  0  0  0  0  0  0  0  0
    4.8210    0.7121   16.0964 C   0  0  0  0  0  0  0  0  0  0  0  0
    4.7665    3.4837   14.6699 C   0  0  0  0  0  0  0  0  0  0  0  0
    7.0492    1.4570   14.0465 C   0  0  0  0  0  0  0  0  0  0  0  0
    3.6683    1.3693    9.4764 C   0  0  0  0  0  0  0  0  0  0  0  0
   -2.3227    2.3713    4.5713 N   0  0  0  0  0  0  0  0  0  0  0  0
   -1.3437    2.7294    5.3366 O   0  0  0  0  0  0  0  0  0  0  0  0
   -3.6192    1.2874    3.1594 N   0  0  0  0  0  0  0  0  0  0  0  0
   -4.1669    0.3746    2.4319 O   0  0  0  0  0  0  0  0  0  0  0  0
   -4.2247    3.3507    1.4684 H   0  0  0  0  0  0  0  0  0  0  0  0
   -5.6133    3.9372    2.4081 H   0  0  0  0  0  0  0  0  0  0  0  0
   -5.5956    2.2939    1.7336 H   0  0  0  0  0  0  0  0  0  0  0  0
   -5.1218    1.6594    5.3167 H   0  0  0  0  0  0  0  0  0  0  0  0
   -6.0934    1.3081    3.8886 H   0  0  0  0  0  0  0  0  0  0  0  0
   -6.1808    2.9146    4.6340 H   0  0  0  0  0  0  0  0  0  0  0  0
   -2.2113    3.7750    2.3271 H   0  0  0  0  0  0  0  0  0  0  0  0
   -1.7178    4.7386    3.7176 H   0  0  0  0  0  0  0  0  0  0  0  0
   -3.2191    5.1401    2.8634 H   0  0  0  0  0  0  0  0  0  0  0  0
   -4.2559    3.5522    6.1034 H   0  0  0  0  0  0  0  0  0  0  0  0
   -4.4443    4.9803    5.0665 H   0  0  0  0  0  0  0  0  0  0  0  0
   -2.8850    4.6119    5.8349 H   0  0  0  0  0  0  0  0  0  0  0  0
   -2.7020   -1.0702    2.5184 H   0  0  0  0  0  0  0  0  0  0  0  0
   -1.1040   -2.9558    2.5250 H   0  0  0  0  0  0  0  0  0  0  0  0
   -0.3613    0.9470    5.4382 H   0  0  0  0  0  0  0  0  0  0  0  0
    0.9934   -3.9517    3.3058 H   0  0  0  0  0  0  0  0  0  0  0  0
    3.0993   -3.7178    4.5715 H   0  0  0  0  0  0  0  0  0  0  0  0
    4.4738   -2.5272    6.1516 H   0  0  0  0  0  0  0  0  0  0  0  0
    4.7769   -0.7683    7.8497 H   0  0  0  0  0  0  0  0  0  0  0  0
    4.6453    1.0679    9.0665 H   0  0  0  0  0  0  0  0  0  0  0  0
    3.6345    2.4748    9.4951 H   0  0  0  0  0  0  0  0  0  0  0  0
    4.2682    2.5394   11.7176 H   0  0  0  0  0  0  0  0  0  0  0  0
    5.4436    1.2426   11.4068 H   0  0  0  0  0  0  0  0  0  0  0  0
    4.2797   -0.2140   13.0291 H   0  0  0  0  0  0  0  0  0  0  0  0
    3.0659    1.0092   13.2949 H   0  0  0  0  0  0  0  0  0  0  0  0
    7.3132    2.0410   13.1698 H   0  0  0  0  0  0  0  0  0  0  0  0
    7.3117    0.4231   13.8428 H   0  0  0  0  0  0  0  0  0  0  0  0
    7.6758    1.7975   14.8655 H   0  0  0  0  0  0  0  0  0  0  0  0
    3.7709    0.7851   16.3611 H   0  0  0  0  0  0  0  0  0  0  0  0
    5.3957    1.1243   16.9197 H   0  0  0  0  0  0  0  0  0  0  0  0
    5.0662   -0.3426   16.0218 H   0  0  0  0  0  0  0  0  0  0  0  0
    5.0338    4.0530   13.7847 H   0  0  0  0  0  0  0  0  0  0  0  0
    5.2945    3.9232   15.5109 H   0  0  0  0  0  0  0  0  0  0  0  0
    3.7037    3.6259   14.8415 H   0  0  0  0  0  0  0  0  0  0  0  0
    1.3957    2.8390   10.2085 H   0  0  0  0  0  0  0  0  0  0  0  0
   -0.9940    3.3978    9.9126 H   0  0  0  0  0  0  0  0  0  0  0  0
   -3.1422    2.9615    8.9608 H   0  0  0  0  0  0  0  0  0  0  0  0
   -4.6680    1.5413    7.6563 H   0  0  0  0  0  0  0  0  0  0  0  0
   -5.0817   -0.5432    6.4269 H   0  0  0  0  0  0  0  0  0  0  0  0
   -4.3175   -2.7624    5.6827 H   0  0  0  0  0  0  0  0  0  0  0  0
   -0.4378   -1.9556    7.2731 H   0  0  0  0  0  0  0  0  0  0  0  0
  1  2  2  0  0  0  0
  1 88  1  0  0  0  0
  2  3  1  0  0  0  0
  2 89  1  0  0  0  0
  3  4  2  0  0  0  0
  3 36  1  0  0  0  0
  4  5  1  0  0  0  0
  4 90  1  0  0  0  0
  5  6  2  0  0  0  0
  5  7  1  0  0  0  0
  6  1  1  0  0  0  0
  7  8  2  0  0  0  0
  7 11  1  0  0  0  0
  8  9  1  0  0  0  0
  9 10  2  0  0  0  0
  9 86  1  0  0  0  0
 10  6  1  0  0  0  0
 10 87  1  0  0  0  0
 11 12  2  0  0  0  0
 11 15  1  0  0  0  0
 12 37  1  0  0  0  0
 12 13  1  0  0  0  0
 13 14  2  0  0  0  0
 13 84  1  0  0  0  0
 14  8  1  0  0  0  0
 14 85  1  0  0  0  0
 15 16  1  0  0  0  0
 15 17  2  0  0  0  0
 16 37  1  0  0  0  0
 17 18  1  0  0  0  0
 17 21  1  0  0  0  0
 18 19  2  0  0  0  0
 19 20  1  0  0  0  0
 19 67  1  0  0  0  0
 20 16  2  0  0  0  0
 20 68  1  0  0  0  0
 21 22  2  0  0  0  0
 21 28  1  0  0  0  0
 22 23  1  0  0  0  0
 23 24  2  0  0  0  0
 23 65  1  0  0  0  0
 24 18  1  0  0  0  0
 24 66  1  0  0  0  0
 25 26  1  0  0  0  0
 25 29  1  0  0  0  0
 26 27  2  0  0  0  0
 26 62  1  0  0  0  0
 27 22  1  0  0  0  0
 27 63  1  0  0  0  0
 28 25  2  0  0  0  0
 28 64  1  0  0  0  0
 29 46  1  0  0  0  0
 29 48  2  0  0  0  0
 30 46  1  0  0  0  0
 30 31  1  0  0  0  0
 30 32  1  0  0  0  0
 30 33  1  0  0  0  0
 31 48  1  0  0  0  0
 31 34  1  0  0  0  0
 31 35  1  0  0  0  0
 32 59  1  0  0  0  0
 32 60  1  0  0  0  0
 32 61  1  0  0  0  0
 33 56  1  0  0  0  0
 33 57  1  0  0  0  0
 33 58  1  0  0  0  0
 34 53  1  0  0  0  0
 34 54  1  0  0  0  0
 34 55  1  0  0  0  0
 35 50  1  0  0  0  0
 35 51  1  0  0  0  0
 35 52  1  0  0  0  0
 37 45  1  0  0  0  0
 38 39  1  0  0  0  0
 38 42  1  0  0  0  0
 38 43  1  0  0  0  0
 38 44  1  0  0  0  0
 39 40  1  0  0  0  0
 39 73  1  0  0  0  0
 39 74  1  0  0  0  0
 40 41  1  0  0  0  0
 40 71  1  0  0  0  0
 40 72  1  0  0  0  0
 41 45  1  0  0  0  0
 42 78  1  0  0  0  0
 42 79  1  0  0  0  0
 42 80  1  0  0  0  0
 43 81  1  0  0  0  0
 43 82  1  0  0  0  0
 43 83  1  0  0  0  0
 44 75  1  0  0  0  0
 44 76  1  0  0  0  0
 44 77  1  0  0  0  0
 45 69  1  0  0  0  0
 45 70  1  0  0  0  0
 46 47  1  0  0  0  0
 48 49  2  0  0  0  0
 91 92  2  0  0  0  0
 91178  1  0  0  0  0
 92 93  1  0  0  0  0
 92179  1  0  0  0  0
 93 94  2  0  0  0  0
 93126  1  0  0  0  0
 94 95  1  0  0  0  0
 94180  1  0  0  0  0
 95 96  2  0  0  0  0
 95 97  1  0  0  0  0
 96 91  1  0  0  0  0
 97 98  2  0  0  0  0
 97101  1  0  0  0  0
 98 99  1  0  0  0  0
 99100  2  0  0  0  0
 99176  1  0  0  0  0
100 96  1  0  0  0  0
100177  1  0  0  0  0
101102  2  0  0  0  0
101105  1  0  0  0  0
102127  1  0  0  0  0
102103  1  0  0  0  0
103104  2  0  0  0  0
103174  1  0  0  0  0
104 98  1  0  0  0  0
104175  1  0  0  0  0
105106  1  0  0  0  0
105107  2  0  0  0  0
106127  1  0  0  0  0
107108  1  0  0  0  0
107111  1  0  0  0  0
108109  2  0  0  0  0
109110  1  0  0  0  0
109157  1  0  0  0  0
110106  2  0  0  0  0
110158  1  0  0  0  0
111112  2  0  0  0  0
111118  1  0  0  0  0
112113  1  0  0  0  0
113114  2  0  0  0  0
113155  1  0  0  0  0
114108  1  0  0  0  0
114156  1  0  0  0  0
115116  1  0  0  0  0
115119  1  0  0  0  0
116117  2  0  0  0  0
116152  1  0  0  0  0
117112  1  0  0  0  0
117153  1  0  0  0  0
118115  2  0  0  0  0
118154  1  0  0  0  0
119136  1  0  0  0  0
119138  2  0  0  0  0
120136  1  0  0  0  0
120121  1  0  0  0  0
120122  1  0  0  0  0
120123  1  0  0  0  0
121138  1  0  0  0  0
121124  1  0  0  0  0
121125  1  0  0  0  0
122149  1  0  0  0  0
122150  1  0  0  0  0
122151  1  0  0  0  0
123146  1  0  0  0  0
123147  1  0  0  0  0
123148  1  0  0  0  0
124143  1  0  0  0  0
124144  1  0  0  0  0
124145  1  0  0  0  0
125140  1  0  0  0  0
125141  1  0  0  0  0
125142  1  0  0  0  0
127135  1  0  0  0  0
128129  1  0  0  0  0
128132  1  0  0  0  0
128133  1  0  0  0  0
128134  1  0  0  0  0
129130  1  0  0  0  0
129163  1  0  0  0  0
129164  1  0  0  0  0
130131  1  0  0  0  0
130161  1  0  0  0  0
130162  1  0  0  0  0
131135  1  0  0  0  0
132168  1  0  0  0  0
132169  1  0  0  0  0
132170  1  0  0  0  0
133171  1  0  0  0  0
133172  1  0  0  0  0
133173  1  0  0  0  0
134165  1  0  0  0  0
134166  1  0  0  0  0
134167  1  0  0  0  0
135159  1  0  0  0  0
135160  1  0  0  0  0
136137  1  0  0  0  0
138139  2  0  0  0  0
M  CHG  1   1  -1
M  END
