energy: -135.474466111054 gnorm: 0.000550999178 xtb: 6.6.1 (8d0f1dd)_energy: -135.474466111054 gnorm: 0.000550999178 xtb: 6.6.1 (8d0f1dd)
 OpenBabel11142411243D

180194  0  0  0  0  0  0  0  0999 V2000
   -5.0098   -0.3511   -1.1121 C   0  0  0  0  0  0  0  0  0  0  0  0
   -4.7595   -1.6975   -1.0984 C   0  0  0  0  0  0  0  0  0  0  0  0
   -3.5241   -2.1388   -0.6244 C   0  0  0  0  0  0  0  0  0  0  0  0
   -2.5256   -1.2666   -0.2777 C   0  0  0  0  0  0  0  0  0  0  0  0
   -2.7263    0.1177   -0.4012 C   0  0  0  0  0  0  0  0  0  0  0  0
   -4.0267    0.5751   -0.7240 C   0  0  0  0  0  0  0  0  0  0  0  0
   -1.6844    1.0690   -0.1260 C   0  0  0  0  0  0  0  0  0  0  0  0
   -2.0684    2.3984    0.1698 C   0  0  0  0  0  0  0  0  0  0  0  0
   -3.4059    2.8119   -0.0789 C   0  0  0  0  0  0  0  0  0  0  0  0
   -4.3294    1.9558   -0.5801 C   0  0  0  0  0  0  0  0  0  0  0  0
   -0.3003    0.7659   -0.0784 C   0  0  0  0  0  0  0  0  0  0  0  0
    0.5624    1.6717    0.5804 C   0  0  0  0  0  0  0  0  0  0  0  0
    0.1458    2.9387    0.9917 C   0  0  0  0  0  0  0  0  0  0  0  0
   -1.1418    3.3097    0.7176 C   0  0  0  0  0  0  0  0  0  0  0  0
    0.5297   -0.3393   -0.4884 C   0  0  0  0  0  0  0  0  0  0  0  0
    1.7910   -0.1236    0.1078 C   0  0  0  0  0  0  0  0  0  0  0  0
    0.3783   -1.4617   -1.3389 C   0  0  0  0  0  0  0  0  0  0  0  0
    1.3395   -2.4930   -1.2381 C   0  0  0  0  0  0  0  0  0  0  0  0
    2.5294   -2.2893   -0.5079 C   0  0  0  0  0  0  0  0  0  0  0  0
    2.7969   -1.0920    0.0990 C   0  0  0  0  0  0  0  0  0  0  0  0
   -0.6626   -1.6024   -2.3169 C   0  0  0  0  0  0  0  0  0  0  0  0
   -0.9285   -2.8757   -2.8729 C   0  0  0  0  0  0  0  0  0  0  0  0
   -0.0466   -3.9524   -2.5905 C   0  0  0  0  0  0  0  0  0  0  0  0
    1.0818   -3.7421   -1.8693 C   0  0  0  0  0  0  0  0  0  0  0  0
   -2.4468   -0.6631   -3.6550 C   0  0  0  0  0  0  0  0  0  0  0  0
   -2.8139   -1.9562   -4.0741 C   0  0  0  0  0  0  0  0  0  0  0  0
   -2.0403   -3.0276   -3.7206 C   0  0  0  0  0  0  0  0  0  0  0  0
   -1.3813   -0.4990   -2.7921 C   0  0  0  0  0  0  0  0  0  0  0  0
   -3.1765    0.5006   -4.1347 C   0  0  0  0  0  0  0  0  0  0  0  0
   -3.6327    2.6870   -4.8117 C   0  0  0  0  0  0  0  0  0  0  0  0
   -4.8889    1.8091   -5.0235 C   0  0  0  0  0  0  0  0  0  0  0  0
   -3.7479    3.7151   -3.6822 C   0  0  0  0  0  0  0  0  0  0  0  0
   -3.0979    3.3907   -6.0573 C   0  0  0  0  0  0  0  0  0  0  0  0
   -6.1605    2.2906   -4.3306 C   0  0  0  0  0  0  0  0  0  0  0  0
   -5.2139    1.4994   -6.4894 C   0  0  0  0  0  0  0  0  0  0  0  0
   -3.2204   -4.0095   -0.4463 Br  0  0  0  0  0  0  0  0  0  0  0  0
    1.8153    1.1215    0.6883 N   0  0  0  0  0  0  0  0  0  0  0  0
    5.3532    2.0872    5.9601 Si  0  0  0  0  0  0  0  0  0  0  0  0
    3.8746    1.5182    4.8835 C   0  0  0  0  0  0  0  0  0  0  0  0
    4.0108    1.9052    3.4245 C   0  0  0  0  0  0  0  0  0  0  0  0
    2.8971    1.4053    2.7124 O   0  0  0  0  0  0  0  0  0  0  0  0
    5.0356    1.5140    7.7499 C   0  0  0  0  0  0  0  0  0  0  0  0
    5.5023    3.9900    5.9035 C   0  0  0  0  0  0  0  0  0  0  0  0
    6.9655    1.3030    5.3030 C   0  0  0  0  0  0  0  0  0  0  0  0
    2.9333    1.7113    1.3431 C   0  0  0  0  0  0  0  0  0  0  0  0
   -2.6264    1.6979   -4.3669 N   0  0  0  0  0  0  0  0  0  0  0  0
   -1.4200    2.0348   -4.2116 O   0  0  0  0  0  0  0  0  0  0  0  0
   -4.4823    0.5208   -4.4199 N   0  0  0  0  0  0  0  0  0  0  0  0
   -5.3176   -0.4144   -4.2731 O   0  0  0  0  0  0  0  0  0  0  0  0
   -4.3601    1.0594   -6.9999 H   0  0  0  0  0  0  0  0  0  0  0  0
   -5.5278    2.3952   -7.0167 H   0  0  0  0  0  0  0  0  0  0  0  0
   -6.0257    0.7750   -6.5113 H   0  0  0  0  0  0  0  0  0  0  0  0
   -5.9990    2.4639   -3.2716 H   0  0  0  0  0  0  0  0  0  0  0  0
   -6.9177    1.5163   -4.4325 H   0  0  0  0  0  0  0  0  0  0  0  0
   -6.5227    3.2037   -4.7941 H   0  0  0  0  0  0  0  0  0  0  0  0
   -2.9256    2.6971   -6.8742 H   0  0  0  0  0  0  0  0  0  0  0  0
   -2.1442    3.8486   -5.8046 H   0  0  0  0  0  0  0  0  0  0  0  0
   -3.7879    4.1645   -6.3812 H   0  0  0  0  0  0  0  0  0  0  0  0
   -4.0235    3.2409   -2.7438 H   0  0  0  0  0  0  0  0  0  0  0  0
   -4.4708    4.4863   -3.9307 H   0  0  0  0  0  0  0  0  0  0  0  0
   -2.7723    4.1765   -3.5433 H   0  0  0  0  0  0  0  0  0  0  0  0
   -3.6831   -2.0861   -4.6988 H   0  0  0  0  0  0  0  0  0  0  0  0
   -2.2741   -4.0136   -4.0952 H   0  0  0  0  0  0  0  0  0  0  0  0
   -1.0771    0.4927   -2.5035 H   0  0  0  0  0  0  0  0  0  0  0  0
   -0.2696   -4.9241   -3.0053 H   0  0  0  0  0  0  0  0  0  0  0  0
    1.7998   -4.5373   -1.7281 H   0  0  0  0  0  0  0  0  0  0  0  0
    3.2499   -3.0927   -0.4638 H   0  0  0  0  0  0  0  0  0  0  0  0
    3.7374   -0.9200    0.5988 H   0  0  0  0  0  0  0  0  0  0  0  0
    3.8639    1.3277    0.8895 H   0  0  0  0  0  0  0  0  0  0  0  0
    2.9109    2.8054    1.1944 H   0  0  0  0  0  0  0  0  0  0  0  0
    4.0562    2.9997    3.3152 H   0  0  0  0  0  0  0  0  0  0  0  0
    4.9353    1.4874    2.9967 H   0  0  0  0  0  0  0  0  0  0  0  0
    3.7639    0.4353    4.9333 H   0  0  0  0  0  0  0  0  0  0  0  0
    2.9423    1.9391    5.2591 H   0  0  0  0  0  0  0  0  0  0  0  0
    7.2358    1.7013    4.3296 H   0  0  0  0  0  0  0  0  0  0  0  0
    6.8688    0.2260    5.2017 H   0  0  0  0  0  0  0  0  0  0  0  0
    7.7980    1.4932    5.9738 H   0  0  0  0  0  0  0  0  0  0  0  0
    4.1174    1.9358    8.1462 H   0  0  0  0  0  0  0  0  0  0  0  0
    5.8448    1.8184    8.4058 H   0  0  0  0  0  0  0  0  0  0  0  0
    4.9526    0.4336    7.8128 H   0  0  0  0  0  0  0  0  0  0  0  0
    5.7547    4.3416    4.9072 H   0  0  0  0  0  0  0  0  0  0  0  0
    6.2759    4.3437    6.5782 H   0  0  0  0  0  0  0  0  0  0  0  0
    4.5723    4.4694    6.1952 H   0  0  0  0  0  0  0  0  0  0  0  0
    0.8234    3.6120    1.4927 H   0  0  0  0  0  0  0  0  0  0  0  0
   -1.4823    4.3066    0.9567 H   0  0  0  0  0  0  0  0  0  0  0  0
   -3.6621    3.8435    0.1185 H   0  0  0  0  0  0  0  0  0  0  0  0
   -5.3351    2.2871   -0.8022 H   0  0  0  0  0  0  0  0  0  0  0  0
   -5.9817    0.0084   -1.4152 H   0  0  0  0  0  0  0  0  0  0  0  0
   -5.5088   -2.4056   -1.4136 H   0  0  0  0  0  0  0  0  0  0  0  0
   -1.5972   -1.6377    0.1237 H   0  0  0  0  0  0  0  0  0  0  0  0
   -5.0098   -0.3511    6.8879 C   0  0  0  0  0  0  0  0  0  0  0  0
   -4.7595   -1.6975    6.9016 C   0  0  0  0  0  0  0  0  0  0  0  0
   -3.5241   -2.1388    7.3756 C   0  0  0  0  0  0  0  0  0  0  0  0
   -2.5256   -1.2666    7.7223 C   0  0  0  0  0  0  0  0  0  0  0  0
   -2.7263    0.1177    7.5988 C   0  0  0  0  0  0  0  0  0  0  0  0
   -4.0267    0.5751    7.2760 C   0  0  0  0  0  0  0  0  0  0  0  0
   -1.6844    1.0690    7.8740 C   0  0  0  0  0  0  0  0  0  0  0  0
   -2.0684    2.3984    8.1698 C   0  0  0  0  0  0  0  0  0  0  0  0
   -3.4059    2.8119    7.9211 C   0  0  0  0  0  0  0  0  0  0  0  0
   -4.3294    1.9558    7.4199 C   0  0  0  0  0  0  0  0  0  0  0  0
   -0.3003    0.7659    7.9216 C   0  0  0  0  0  0  0  0  0  0  0  0
    0.5624    1.6717    8.5804 C   0  0  0  0  0  0  0  0  0  0  0  0
    0.1458    2.9387    8.9917 C   0  0  0  0  0  0  0  0  0  0  0  0
   -1.1418    3.3097    8.7176 C   0  0  0  0  0  0  0  0  0  0  0  0
    0.5297   -0.3393    7.5116 C   0  0  0  0  0  0  0  0  0  0  0  0
    1.7910   -0.1236    8.1078 C   0  0  0  0  0  0  0  0  0  0  0  0
    0.3783   -1.4617    6.6611 C   0  0  0  0  0  0  0  0  0  0  0  0
    1.3395   -2.4930    6.7619 C   0  0  0  0  0  0  0  0  0  0  0  0
    2.5294   -2.2893    7.4921 C   0  0  0  0  0  0  0  0  0  0  0  0
    2.7969   -1.0920    8.0990 C   0  0  0  0  0  0  0  0  0  0  0  0
   -0.6626   -1.6024    5.6831 C   0  0  0  0  0  0  0  0  0  0  0  0
   -0.9285   -2.8757    5.1271 C   0  0  0  0  0  0  0  0  0  0  0  0
   -0.0466   -3.9524    5.4095 C   0  0  0  0  0  0  0  0  0  0  0  0
    1.0818   -3.7421    6.1307 C   0  0  0  0  0  0  0  0  0  0  0  0
   -2.4468   -0.6631    4.3450 C   0  0  0  0  0  0  0  0  0  0  0  0
   -2.8139   -1.9562    3.9259 C   0  0  0  0  0  0  0  0  0  0  0  0
   -2.0403   -3.0276    4.2794 C   0  0  0  0  0  0  0  0  0  0  0  0
   -1.3813   -0.4990    5.2079 C   0  0  0  0  0  0  0  0  0  0  0  0
   -3.1765    0.5006    3.8653 C   0  0  0  0  0  0  0  0  0  0  0  0
   -3.6327    2.6870    3.1883 C   0  0  0  0  0  0  0  0  0  0  0  0
   -4.8889    1.8091    2.9765 C   0  0  0  0  0  0  0  0  0  0  0  0
   -3.7479    3.7151    4.3178 C   0  0  0  0  0  0  0  0  0  0  0  0
   -3.0979    3.3907    1.9427 C   0  0  0  0  0  0  0  0  0  0  0  0
   -6.1605    2.2906    3.6694 C   0  0  0  0  0  0  0  0  0  0  0  0
   -5.2139    1.4994    1.5106 C   0  0  0  0  0  0  0  0  0  0  0  0
   -3.2204   -4.0095    7.5537 Br  0  0  0  0  0  0  0  0  0  0  0  0
    1.8153    1.1215    8.6883 N   0  0  0  0  0  0  0  0  0  0  0  0
    5.3532    2.0872   13.9601 Si  0  0  0  0  0  0  0  0  0  0  0  0
    3.8746    1.5182   12.8835 C   0  0  0  0  0  0  0  0  0  0  0  0
    4.0108    1.9052   11.4245 C   0  0  0  0  0  0  0  0  0  0  0  0
    2.8971    1.4053   10.7124 O   0  0  0  0  0  0  0  0  0  0  0  0
    5.0356    1.5140   15.7499 C   0  0  0  0  0  0  0  0  0  0  0  0
    5.5023    3.9900   13.9035 C   0  0  0  0  0  0  0  0  0  0  0  0
    6.9655    1.3030   13.3030 C   0  0  0  0  0  0  0  0  0  0  0  0
    2.9333    1.7113    9.3431 C   0  0  0  0  0  0  0  0  0  0  0  0
   -2.6264    1.6979    3.6331 N   0  0  0  0  0  0  0  0  0  0  0  0
   -1.4200    2.0348    3.7884 O   0  0  0  0  0  0  0  0  0  0  0  0
   -4.4823    0.5208    3.5801 N   0  0  0  0  0  0  0  0  0  0  0  0
   -5.3176   -0.4144    3.7269 O   0  0  0  0  0  0  0  0  0  0  0  0
   -4.3601    1.0594    1.0001 H   0  0  0  0  0  0  0  0  0  0  0  0
   -5.5278    2.3952    0.9833 H   0  0  0  0  0  0  0  0  0  0  0  0
   -6.0257    0.7750    1.4887 H   0  0  0  0  0  0  0  0  0  0  0  0
   -5.9990    2.4639    4.7284 H   0  0  0  0  0  0  0  0  0  0  0  0
   -6.9177    1.5163    3.5675 H   0  0  0  0  0  0  0  0  0  0  0  0
   -6.5227    3.2037    3.2059 H   0  0  0  0  0  0  0  0  0  0  0  0
   -2.9256    2.6971    1.1258 H   0  0  0  0  0  0  0  0  0  0  0  0
   -2.1442    3.8486    2.1954 H   0  0  0  0  0  0  0  0  0  0  0  0
   -3.7879    4.1645    1.6188 H   0  0  0  0  0  0  0  0  0  0  0  0
   -4.0235    3.2409    5.2562 H   0  0  0  0  0  0  0  0  0  0  0  0
   -4.4708    4.4863    4.0693 H   0  0  0  0  0  0  0  0  0  0  0  0
   -2.7723    4.1765    4.4567 H   0  0  0  0  0  0  0  0  0  0  0  0
   -3.6831   -2.0861    3.3012 H   0  0  0  0  0  0  0  0  0  0  0  0
   -2.2741   -4.0136    3.9048 H   0  0  0  0  0  0  0  0  0  0  0  0
   -1.0771    0.4927    5.4965 H   0  0  0  0  0  0  0  0  0  0  0  0
   -0.2696   -4.9241    4.9947 H   0  0  0  0  0  0  0  0  0  0  0  0
    1.7998   -4.5373    6.2719 H   0  0  0  0  0  0  0  0  0  0  0  0
    3.2499   -3.0927    7.5362 H   0  0  0  0  0  0  0  0  0  0  0  0
    3.7374   -0.9200    8.5988 H   0  0  0  0  0  0  0  0  0  0  0  0
    3.8639    1.3277    8.8895 H   0  0  0  0  0  0  0  0  0  0  0  0
    2.9109    2.8054    9.1944 H   0  0  0  0  0  0  0  0  0  0  0  0
    4.0562    2.9997   11.3152 H   0  0  0  0  0  0  0  0  0  0  0  0
    4.9353    1.4874   10.9967 H   0  0  0  0  0  0  0  0  0  0  0  0
    3.7639    0.4353   12.9333 H   0  0  0  0  0  0  0  0  0  0  0  0
    2.9423    1.9391   13.2591 H   0  0  0  0  0  0  0  0  0  0  0  0
    7.2358    1.7013   12.3296 H   0  0  0  0  0  0  0  0  0  0  0  0
    6.8688    0.2260   13.2017 H   0  0  0  0  0  0  0  0  0  0  0  0
    7.7980    1.4932   13.9738 H   0  0  0  0  0  0  0  0  0  0  0  0
    4.1174    1.9358   16.1462 H   0  0  0  0  0  0  0  0  0  0  0  0
    5.8448    1.8184   16.4058 H   0  0  0  0  0  0  0  0  0  0  0  0
    4.9526    0.4336   15.8128 H   0  0  0  0  0  0  0  0  0  0  0  0
    5.7547    4.3416   12.9072 H   0  0  0  0  0  0  0  0  0  0  0  0
    6.2759    4.3437   14.5782 H   0  0  0  0  0  0  0  0  0  0  0  0
    4.5723    4.4694   14.1952 H   0  0  0  0  0  0  0  0  0  0  0  0
    0.8234    3.6120    9.4927 H   0  0  0  0  0  0  0  0  0  0  0  0
   -1.4823    4.3066    8.9567 H   0  0  0  0  0  0  0  0  0  0  0  0
   -3.6621    3.8435    8.1185 H   0  0  0  0  0  0  0  0  0  0  0  0
   -5.3351    2.2871    7.1978 H   0  0  0  0  0  0  0  0  0  0  0  0
   -5.9817    0.0084    6.5848 H   0  0  0  0  0  0  0  0  0  0  0  0
   -5.5088   -2.4056    6.5864 H   0  0  0  0  0  0  0  0  0  0  0  0
   -1.5972   -1.6377    8.1237 H   0  0  0  0  0  0  0  0  0  0  0  0
  1  2  2  0  0  0  0
  1 88  1  0  0  0  0
  2  3  1  0  0  0  0
  2 89  1  0  0  0  0
  3  4  2  0  0  0  0
  3 36  1  0  0  0  0
  4  5  1  0  0  0  0
  4 90  1  0  0  0  0
  5  6  2  0  0  0  0
  5  7  1  0  0  0  0
  6  1  1  0  0  0  0
  7  8  2  0  0  0  0
  7 11  1  0  0  0  0
  8  9  1  0  0  0  0
  9 10  2  0  0  0  0
  9 86  1  0  0  0  0
 10  6  1  0  0  0  0
 10 87  1  0  0  0  0
 11 12  2  0  0  0  0
 11 15  1  0  0  0  0
 12 37  1  0  0  0  0
 12 13  1  0  0  0  0
 13 14  2  0  0  0  0
 13 84  1  0  0  0  0
 14  8  1  0  0  0  0
 14 85  1  0  0  0  0
 15 16  1  0  0  0  0
 15 17  2  0  0  0  0
 16 37  1  0  0  0  0
 17 18  1  0  0  0  0
 17 21  1  0  0  0  0
 18 19  2  0  0  0  0
 19 20  1  0  0  0  0
 19 67  1  0  0  0  0
 20 16  2  0  0  0  0
 20 68  1  0  0  0  0
 21 22  2  0  0  0  0
 21 28  1  0  0  0  0
 22 23  1  0  0  0  0
 23 24  2  0  0  0  0
 23 65  1  0  0  0  0
 24 18  1  0  0  0  0
 24 66  1  0  0  0  0
 25 26  1  0  0  0  0
 25 29  1  0  0  0  0
 26 27  2  0  0  0  0
 26 62  1  0  0  0  0
 27 22  1  0  0  0  0
 27 63  1  0  0  0  0
 28 25  2  0  0  0  0
 28 64  1  0  0  0  0
 29 46  1  0  0  0  0
 29 48  2  0  0  0  0
 30 46  1  0  0  0  0
 30 31  1  0  0  0  0
 30 32  1  0  0  0  0
 30 33  1  0  0  0  0
 31 48  1  0  0  0  0
 31 34  1  0  0  0  0
 31 35  1  0  0  0  0
 32 59  1  0  0  0  0
 32 60  1  0  0  0  0
 32 61  1  0  0  0  0
 33 56  1  0  0  0  0
 33 57  1  0  0  0  0
 33 58  1  0  0  0  0
 34 53  1  0  0  0  0
 34 54  1  0  0  0  0
 34 55  1  0  0  0  0
 35 50  1  0  0  0  0
 35 51  1  0  0  0  0
 35 52  1  0  0  0  0
 37 45  1  0  0  0  0
 38 39  1  0  0  0  0
 38 42  1  0  0  0  0
 38 43  1  0  0  0  0
 38 44  1  0  0  0  0
 39 40  1  0  0  0  0
 39 73  1  0  0  0  0
 39 74  1  0  0  0  0
 40 41  1  0  0  0  0
 40 71  1  0  0  0  0
 40 72  1  0  0  0  0
 41 45  1  0  0  0  0
 42 78  1  0  0  0  0
 42 79  1  0  0  0  0
 42 80  1  0  0  0  0
 43 81  1  0  0  0  0
 43 82  1  0  0  0  0
 43 83  1  0  0  0  0
 44 75  1  0  0  0  0
 44 76  1  0  0  0  0
 44 77  1  0  0  0  0
 45 69  1  0  0  0  0
 45 70  1  0  0  0  0
 46 47  1  0  0  0  0
 48 49  2  0  0  0  0
 91 92  2  0  0  0  0
 91178  1  0  0  0  0
 92 93  1  0  0  0  0
 92179  1  0  0  0  0
 93 94  2  0  0  0  0
 93126  1  0  0  0  0
 94 95  1  0  0  0  0
 94180  1  0  0  0  0
 95 96  2  0  0  0  0
 95 97  1  0  0  0  0
 96 91  1  0  0  0  0
 97 98  2  0  0  0  0
 97101  1  0  0  0  0
 98 99  1  0  0  0  0
 99100  2  0  0  0  0
 99176  1  0  0  0  0
100 96  1  0  0  0  0
100177  1  0  0  0  0
101102  2  0  0  0  0
101105  1  0  0  0  0
102127  1  0  0  0  0
102103  1  0  0  0  0
103104  2  0  0  0  0
103174  1  0  0  0  0
104 98  1  0  0  0  0
104175  1  0  0  0  0
105106  1  0  0  0  0
105107  2  0  0  0  0
106127  1  0  0  0  0
107108  1  0  0  0  0
107111  1  0  0  0  0
108109  2  0  0  0  0
109110  1  0  0  0  0
109157  1  0  0  0  0
110106  2  0  0  0  0
110158  1  0  0  0  0
111112  2  0  0  0  0
111118  1  0  0  0  0
112113  1  0  0  0  0
113114  2  0  0  0  0
113155  1  0  0  0  0
114108  1  0  0  0  0
114156  1  0  0  0  0
115116  1  0  0  0  0
115119  1  0  0  0  0
116117  2  0  0  0  0
116152  1  0  0  0  0
117112  1  0  0  0  0
117153  1  0  0  0  0
118115  2  0  0  0  0
118154  1  0  0  0  0
119136  1  0  0  0  0
119138  2  0  0  0  0
120136  1  0  0  0  0
120121  1  0  0  0  0
120122  1  0  0  0  0
120123  1  0  0  0  0
121138  1  0  0  0  0
121124  1  0  0  0  0
121125  1  0  0  0  0
122149  1  0  0  0  0
122150  1  0  0  0  0
122151  1  0  0  0  0
123146  1  0  0  0  0
123147  1  0  0  0  0
123148  1  0  0  0  0
124143  1  0  0  0  0
124144  1  0  0  0  0
124145  1  0  0  0  0
125140  1  0  0  0  0
125141  1  0  0  0  0
125142  1  0  0  0  0
127135  1  0  0  0  0
128129  1  0  0  0  0
128132  1  0  0  0  0
128133  1  0  0  0  0
128134  1  0  0  0  0
129130  1  0  0  0  0
129163  1  0  0  0  0
129164  1  0  0  0  0
130131  1  0  0  0  0
130161  1  0  0  0  0
130162  1  0  0  0  0
131135  1  0  0  0  0
132168  1  0  0  0  0
132169  1  0  0  0  0
132170  1  0  0  0  0
133171  1  0  0  0  0
133172  1  0  0  0  0
133173  1  0  0  0  0
134165  1  0  0  0  0
134166  1  0  0  0  0
134167  1  0  0  0  0
135159  1  0  0  0  0
135160  1  0  0  0  0
136137  1  0  0  0  0
138139  2  0  0  0  0
M  END
