 energy: -401.228081961350 gnorm: 0.000488319231 xtb: 6.7.1 (edcfbbe)
          03172518413D

202224  0     0  0            999 V2000
   -0.0002    4.2554    1.6968 C   0  0  0  0  0  0  0  0  0  0  0  0
    0.0700    3.1617    2.5539 C   0  0  0  0  0  0  0  0  0  0  0  0
    1.3150    2.8241    3.1498 C   0  0  0  0  0  0  0  0  0  0  0  0
    2.3329    3.8519    3.1081 C   0  0  0  0  0  0  0  0  0  0  0  0
    2.2366    4.9311    2.1993 C   0  0  0  0  0  0  0  0  0  0  0  0
    1.0884    5.1038    1.4671 C   0  0  0  0  0  0  0  0  0  0  0  0
    1.6753    1.6100    3.8368 C   0  0  0  0  0  0  0  0  0  0  0  0
    2.7281    1.7433    4.7722 C   0  0  0  0  0  0  0  0  0  0  0  0
    3.4958    2.9415    4.8539 C   0  0  0  0  0  0  0  0  0  0  0  0
    3.3639    3.8977    3.9408 N   0  0  0  0  0  0  0  0  0  0  0  0
    1.2381    0.2636    3.5737 C   0  0  0  0  0  0  0  0  0  0  0  0
    1.8131   -0.7798    4.3879 C   0  0  0  0  0  0  0  0  0  0  0  0
    2.6243   -0.5655    5.4202 N   0  0  0  0  0  0  0  0  0  0  0  0
    3.1056    0.6563    5.6104 C   0  0  0  0  0  0  0  0  0  0  0  0
    4.0610    0.8450    6.6299 C   0  0  0  0  0  0  0  0  0  0  0  0
    4.7399    2.0490    6.7427 C   0  0  0  0  0  0  0  0  0  0  0  0
    4.4897    3.0780    5.8422 C   0  0  0  0  0  0  0  0  0  0  0  0
    0.4305   -0.1742    2.4847 C   0  0  0  0  0  0  0  0  0  0  0  0
    0.3436   -1.5337    2.1777 C   0  0  0  0  0  0  0  0  0  0  0  0
    0.9294   -2.5268    2.9721 C   0  0  0  0  0  0  0  0  0  0  0  0
    1.6087   -2.1496    4.1014 C   0  0  0  0  0  0  0  0  0  0  0  0
   -1.0663    2.5294    2.8495 O   0  0  0  0  0  0  0  0  0  0  0  0
   -0.2389    0.6355    1.6652 O   0  0  0  0  0  0  0  0  0  0  0  0
    0.9969    6.2320    0.5015 C   0  0  0  0  0  0  0  0  0  0  0  0
    0.7541   -3.9692    2.6689 C   0  0  0  0  0  0  0  0  0  0  0  0
    5.8008    2.2467    7.7715 C   0  0  0  0  0  0  0  0  0  0  0  0
   -1.9560   -1.6104    3.6527 C   0  0  0  0  0  0  0  0  0  0  0  0
   -2.5904   -0.7077    2.8002 C   0  0  0  0  0  0  0  0  0  0  0  0
   -3.5298   -1.1774    1.8388 C   0  0  0  0  0  0  0  0  0  0  0  0
   -3.6716   -2.6095    1.7348 C   0  0  0  0  0  0  0  0  0  0  0  0
   -2.9487   -3.4903    2.5706 C   0  0  0  0  0  0  0  0  0  0  0  0
   -2.1477   -2.9924    3.5653 C   0  0  0  0  0  0  0  0  0  0  0  0
   -4.4634   -0.3755    1.0935 C   0  0  0  0  0  0  0  0  0  0  0  0
   -5.5103   -1.0763    0.4534 C   0  0  0  0  0  0  0  0  0  0  0  0
   -5.4523   -2.4907    0.3029 C   0  0  0  0  0  0  0  0  0  0  0  0
   -4.5263   -3.2178    0.9144 N   0  0  0  0  0  0  0  0  0  0  0  0
   -4.5560    1.0584    1.0186 C   0  0  0  0  0  0  0  0  0  0  0  0
   -5.8689    1.6033    0.7565 C   0  0  0  0  0  0  0  0  0  0  0  0
   -6.8631    0.8946    0.2406 N   0  0  0  0  0  0  0  0  0  0  0  0
   -6.6617   -0.3912   -0.0359 C   0  0  0  0  0  0  0  0  0  0  0  0
   -7.6424   -1.0968   -0.7540 C   0  0  0  0  0  0  0  0  0  0  0  0
   -7.4999   -2.4585   -0.9999 C   0  0  0  0  0  0  0  0  0  0  0  0
   -6.4234   -3.1550   -0.4774 C   0  0  0  0  0  0  0  0  0  0  0  0
   -3.4888    1.9885    1.0873 C   0  0  0  0  0  0  0  0  0  0  0  0
   -3.7722    3.3416    1.2529 C   0  0  0  0  0  0  0  0  0  0  0  0
   -5.0797    3.8369    1.2187 C   0  0  0  0  0  0  0  0  0  0  0  0
   -6.1177    2.9825    0.9360 C   0  0  0  0  0  0  0  0  0  0  0  0
   -2.3292    0.5752    3.0222 O   0  0  0  0  0  0  0  0  0  0  0  0
   -2.2224    1.6014    0.9134 O   0  0  0  0  0  0  0  0  0  0  0  0
   -1.4835   -3.8541    4.5761 C   0  0  0  0  0  0  0  0  0  0  0  0
   -5.3724    5.2916    1.3584 C   0  0  0  0  0  0  0  0  0  0  0  0
   -8.5573   -3.1426   -1.7958 C   0  0  0  0  0  0  0  0  0  0  0  0
   -1.4415    1.3389    2.1227 B   0  0  0  0  0  0  0  0  0  0  0  0
    6.5722    3.1687    7.7791 O   0  0  0  0  0  0  0  0  0  0  0  0
    5.7988    1.2673    8.6871 O   0  0  0  0  0  0  0  0  0  0  0  0
    6.8258    1.3214    9.6686 C   0  0  0  0  0  0  0  0  0  0  0  0
    0.0006   -4.1762    1.5871 O   0  0  0  0  0  0  0  0  0  0  0  0
   -0.2656   -5.5325    1.2582 C   0  0  0  0  0  0  0  0  0  0  0  0
    1.2202   -4.8681    3.3300 O   0  0  0  0  0  0  0  0  0  0  0  0
   -0.7985   -3.4234    5.4729 O   0  0  0  0  0  0  0  0  0  0  0  0
   -1.7569   -5.1442    4.3963 O   0  0  0  0  0  0  0  0  0  0  0  0
   -1.1807   -6.0612    5.3190 C   0  0  0  0  0  0  0  0  0  0  0  0
   -9.3641   -2.5764   -2.4841 O   0  0  0  0  0  0  0  0  0  0  0  0
   -8.5088   -4.4764   -1.6571 O   0  0  0  0  0  0  0  0  0  0  0  0
   -9.4843   -5.2068   -2.3894 C   0  0  0  0  0  0  0  0  0  0  0  0
   -6.4662    5.7707    1.2100 O   0  0  0  0  0  0  0  0  0  0  0  0
   -4.2783    6.0149    1.6263 O   0  0  0  0  0  0  0  0  0  0  0  0
   -4.5013    7.4115    1.7691 C   0  0  0  0  0  0  0  0  0  0  0  0
    1.9329    6.8991    0.1419 O   0  0  0  0  0  0  0  0  0  0  0  0
   -0.2590    6.4384    0.0796 O   0  0  0  0  0  0  0  0  0  0  0  0
   -0.4331    7.4915   -0.8567 C   0  0  0  0  0  0  0  0  0  0  0  0
   -9.3854   -5.0031   -3.4573 H   0  0  0  0  0  0  0  0  0  0  0  0
  -10.4883   -4.9215   -2.0698 H   0  0  0  0  0  0  0  0  0  0  0  0
   -9.2988   -6.2571   -2.1805 H   0  0  0  0  0  0  0  0  0  0  0  0
   -3.5204    7.8683    1.8810 H   0  0  0  0  0  0  0  0  0  0  0  0
   -5.1257    7.5944    2.6461 H   0  0  0  0  0  0  0  0  0  0  0  0
   -5.0098    7.8048    0.8864 H   0  0  0  0  0  0  0  0  0  0  0  0
   -1.4934    7.5140   -1.0949 H   0  0  0  0  0  0  0  0  0  0  0  0
    0.1577    7.3024   -1.7550 H   0  0  0  0  0  0  0  0  0  0  0  0
   -0.1141    8.4418   -0.4230 H   0  0  0  0  0  0  0  0  0  0  0  0
   -1.8434   -6.9234    5.3535 H   0  0  0  0  0  0  0  0  0  0  0  0
   -1.0915   -5.5979    6.3029 H   0  0  0  0  0  0  0  0  0  0  0  0
   -0.1909   -6.3530    4.9620 H   0  0  0  0  0  0  0  0  0  0  0  0
   -0.8344   -6.0067    2.0605 H   0  0  0  0  0  0  0  0  0  0  0  0
    0.6688   -6.0787    1.1131 H   0  0  0  0  0  0  0  0  0  0  0  0
   -0.8459   -5.5113    0.3398 H   0  0  0  0  0  0  0  0  0  0  0  0
    6.4991    0.6885   10.4900 H   0  0  0  0  0  0  0  0  0  0  0  0
    6.9757    2.3494   10.0041 H   0  0  0  0  0  0  0  0  0  0  0  0
    7.7599    0.9458    9.2459 H   0  0  0  0  0  0  0  0  0  0  0  0
   -8.5138   -0.5699   -1.1090 H   0  0  0  0  0  0  0  0  0  0  0  0
   -6.3108   -4.2166   -0.6300 H   0  0  0  0  0  0  0  0  0  0  0  0
   -7.1205    3.3509    0.7918 H   0  0  0  0  0  0  0  0  0  0  0  0
   -3.1235   -4.5457    2.4493 H   0  0  0  0  0  0  0  0  0  0  0  0
   -2.9477    4.0196    1.3939 H   0  0  0  0  0  0  0  0  0  0  0  0
   -1.3259   -1.2037    4.4302 H   0  0  0  0  0  0  0  0  0  0  0  0
   -0.9320    4.4420    1.1891 H   0  0  0  0  0  0  0  0  0  0  0  0
   -0.2120   -1.8041    1.2931 H   0  0  0  0  0  0  0  0  0  0  0  0
    2.0376   -2.8721    4.7753 H   0  0  0  0  0  0  0  0  0  0  0  0
    3.0565    5.6292    2.1434 H   0  0  0  0  0  0  0  0  0  0  0  0
    5.0732    3.9847    5.8789 H   0  0  0  0  0  0  0  0  0  0  0  0
    4.2833    0.0144    7.2807 H   0  0  0  0  0  0  0  0  0  0  0  0
    0.5094    4.3772    6.1242 C   0  0  0  0  0  0  0  0  0  0  0  0
    0.5482    3.4125    7.1263 C   0  0  0  0  0  0  0  0  0  0  0  0
    1.7423    3.2362    7.8721 C   0  0  0  0  0  0  0  0  0  0  0  0
    2.6842    4.3334    7.8220 C   0  0  0  0  0  0  0  0  0  0  0  0
    2.5795    5.3379    6.8325 C   0  0  0  0  0  0  0  0  0  0  0  0
    1.5188    5.3313    5.9619 C   0  0  0  0  0  0  0  0  0  0  0  0
    2.0620    2.1321    8.7400 C   0  0  0  0  0  0  0  0  0  0  0  0
    3.0093    2.4396    9.7467 C   0  0  0  0  0  0  0  0  0  0  0  0
    3.7092    3.6829    9.7548 C   0  0  0  0  0  0  0  0  0  0  0  0
    3.6142    4.5386    8.7438 N   0  0  0  0  0  0  0  0  0  0  0  0
    1.6618    0.7458    8.6396 C   0  0  0  0  0  0  0  0  0  0  0  0
    2.1888   -0.1424    9.6569 C   0  0  0  0  0  0  0  0  0  0  0  0
    2.8794    0.2521   10.7153 N   0  0  0  0  0  0  0  0  0  0  0  0
    3.3180    1.5038   10.7727 C   0  0  0  0  0  0  0  0  0  0  0  0
    4.1618    1.8635   11.8417 C   0  0  0  0  0  0  0  0  0  0  0  0
    4.7870    3.1018   11.8561 C   0  0  0  0  0  0  0  0  0  0  0  0
    4.5853    3.9941   10.8111 C   0  0  0  0  0  0  0  0  0  0  0  0
    0.9378    0.1027    7.5914 C   0  0  0  0  0  0  0  0  0  0  0  0
    0.9889   -1.2922    7.4573 C   0  0  0  0  0  0  0  0  0  0  0  0
    1.6043   -2.1183    8.4036 C   0  0  0  0  0  0  0  0  0  0  0  0
    2.0992   -1.5529    9.5461 C   0  0  0  0  0  0  0  0  0  0  0  0
   -0.5679    2.7665    7.4631 O   0  0  0  0  0  0  0  0  0  0  0  0
    0.2804    0.7209    6.6124 O   0  0  0  0  0  0  0  0  0  0  0  0
    1.3835    6.4311    4.9682 C   0  0  0  0  0  0  0  0  0  0  0  0
    1.7711   -3.5823    8.1831 C   0  0  0  0  0  0  0  0  0  0  0  0
    5.7246    3.4945   12.9479 C   0  0  0  0  0  0  0  0  0  0  0  0
   -1.7400   -1.2272    8.4786 C   0  0  0  0  0  0  0  0  0  0  0  0
   -2.2829   -0.3672    7.5243 C   0  0  0  0  0  0  0  0  0  0  0  0
   -3.1574   -0.8756    6.5173 C   0  0  0  0  0  0  0  0  0  0  0  0
   -3.3889   -2.3047    6.5598 C   0  0  0  0  0  0  0  0  0  0  0  0
   -2.7511   -3.1447    7.5049 C   0  0  0  0  0  0  0  0  0  0  0  0
   -1.9441   -2.6093    8.4710 C   0  0  0  0  0  0  0  0  0  0  0  0
   -3.9216   -0.1310    5.5423 C   0  0  0  0  0  0  0  0  0  0  0  0
   -4.9274   -0.8506    4.8509 C   0  0  0  0  0  0  0  0  0  0  0  0
   -5.0021   -2.2687    4.9315 C   0  0  0  0  0  0  0  0  0  0  0  0
   -4.2177   -2.9579    5.7525 N   0  0  0  0  0  0  0  0  0  0  0  0
   -3.8590    1.2690    5.2181 C   0  0  0  0  0  0  0  0  0  0  0  0
   -5.0274    1.8581    4.5983 C   0  0  0  0  0  0  0  0  0  0  0  0
   -5.9824    1.1474    4.0214 N   0  0  0  0  0  0  0  0  0  0  0  0
   -5.8942   -0.1810    4.0447 C   0  0  0  0  0  0  0  0  0  0  0  0
   -6.8298   -0.9197    3.3020 C   0  0  0  0  0  0  0  0  0  0  0  0
   -6.8184   -2.3105    3.3227 C   0  0  0  0  0  0  0  0  0  0  0  0
   -5.9186   -2.9830    4.1324 C   0  0  0  0  0  0  0  0  0  0  0  0
   -2.7391    2.1290    5.3656 C   0  0  0  0  0  0  0  0  0  0  0  0
   -2.9404    3.5044    5.3076 C   0  0  0  0  0  0  0  0  0  0  0  0
   -4.1588    4.0784    4.9310 C   0  0  0  0  0  0  0  0  0  0  0  0
   -5.1809    3.2634    4.5160 C   0  0  0  0  0  0  0  0  0  0  0  0
   -1.9620    0.9190    7.6838 O   0  0  0  0  0  0  0  0  0  0  0  0
   -1.5112    1.6487    5.5002 O   0  0  0  0  0  0  0  0  0  0  0  0
   -1.2803   -3.4234    9.5271 C   0  0  0  0  0  0  0  0  0  0  0  0
   -4.3346    5.5548    4.9310 C   0  0  0  0  0  0  0  0  0  0  0  0
   -7.8002   -3.0316    2.4661 C   0  0  0  0  0  0  0  0  0  0  0  0
   -0.9348    1.5238    6.8228 B   0  0  0  0  0  0  0  0  0  0  0  0
    6.2164    4.5882   13.0534 O   0  0  0  0  0  0  0  0  0  0  0  0
    5.9706    2.4851   13.7896 O   0  0  0  0  0  0  0  0  0  0  0  0
    6.8633    2.7720   14.8575 C   0  0  0  0  0  0  0  0  0  0  0  0
    1.8537   -3.8732    6.8910 O   0  0  0  0  0  0  0  0  0  0  0  0
    2.1119   -5.2298    6.5539 C   0  0  0  0  0  0  0  0  0  0  0  0
    1.8882   -4.3969    9.0667 O   0  0  0  0  0  0  0  0  0  0  0  0
   -0.7227   -2.9488   10.4839 O   0  0  0  0  0  0  0  0  0  0  0  0
   -1.3797   -4.7334    9.2946 O   0  0  0  0  0  0  0  0  0  0  0  0
   -0.7550   -5.5801   10.2556 C   0  0  0  0  0  0  0  0  0  0  0  0
   -8.5957   -2.4791    1.7462 O   0  0  0  0  0  0  0  0  0  0  0  0
   -7.7025   -4.3563    2.5793 O   0  0  0  0  0  0  0  0  0  0  0  0
   -8.6166   -5.1183    1.8005 C   0  0  0  0  0  0  0  0  0  0  0  0
   -5.3236    6.1260    4.5435 O   0  0  0  0  0  0  0  0  0  0  0  0
   -3.2726    6.1877    5.4411 O   0  0  0  0  0  0  0  0  0  0  0  0
   -3.3627    7.5997    5.5443 C   0  0  0  0  0  0  0  0  0  0  0  0
    2.2105    7.2852    4.7840 O   0  0  0  0  0  0  0  0  0  0  0  0
    0.2043    6.3911    4.3306 O   0  0  0  0  0  0  0  0  0  0  0  0
   -0.0640    7.4576    3.4336 C   0  0  0  0  0  0  0  0  0  0  0  0
   -8.4215   -4.9740    0.7362 H   0  0  0  0  0  0  0  0  0  0  0  0
   -9.6420   -4.8109    2.0156 H   0  0  0  0  0  0  0  0  0  0  0  0
   -8.4598   -6.1560    2.0828 H   0  0  0  0  0  0  0  0  0  0  0  0
   -2.5523    7.9087    6.2000 H   0  0  0  0  0  0  0  0  0  0  0  0
   -4.3288    7.8890    5.9634 H   0  0  0  0  0  0  0  0  0  0  0  0
   -3.2528    8.0607    4.5607 H   0  0  0  0  0  0  0  0  0  0  0  0
   -0.8698    7.1179    2.7872 H   0  0  0  0  0  0  0  0  0  0  0  0
    0.8278    7.6996    2.8518 H   0  0  0  0  0  0  0  0  0  0  0  0
   -0.3691    8.3449    3.9941 H   0  0  0  0  0  0  0  0  0  0  0  0
   -1.0121   -6.5980    9.9742 H   0  0  0  0  0  0  0  0  0  0  0  0
   -1.1247   -5.3498   11.2561 H   0  0  0  0  0  0  0  0  0  0  0  0
    0.3260   -5.4285   10.2318 H   0  0  0  0  0  0  0  0  0  0  0  0
    1.4447   -5.8930    7.1075 H   0  0  0  0  0  0  0  0  0  0  0  0
    3.1450   -5.4837    6.8029 H   0  0  0  0  0  0  0  0  0  0  0  0
    1.9470   -5.3102    5.4818 H   0  0  0  0  0  0  0  0  0  0  0  0
    6.9974    1.8399   15.3997 H   0  0  0  0  0  0  0  0  0  0  0  0
    6.4401    3.5383   15.5097 H   0  0  0  0  0  0  0  0  0  0  0  0
    7.8171    3.1324   14.4669 H   0  0  0  0  0  0  0  0  0  0  0  0
   -7.5667   -0.3902    2.7173 H   0  0  0  0  0  0  0  0  0  0  0  0
   -5.9052   -4.0594    4.1797 H   0  0  0  0  0  0  0  0  0  0  0  0
   -6.0994    3.6594    4.1135 H   0  0  0  0  0  0  0  0  0  0  0  0
   -2.9747   -4.1977    7.4605 H   0  0  0  0  0  0  0  0  0  0  0  0
   -2.1234    4.1530    5.5645 H   0  0  0  0  0  0  0  0  0  0  0  0
   -1.1436   -0.7927    9.2668 H   0  0  0  0  0  0  0  0  0  0  0  0
   -0.3470    4.4161    5.4747 H   0  0  0  0  0  0  0  0  0  0  0  0
    0.4909   -1.7383    6.6108 H   0  0  0  0  0  0  0  0  0  0  0  0
    2.5179   -2.1493   10.3403 H   0  0  0  0  0  0  0  0  0  0  0  0
    3.3150    6.1253    6.8172 H   0  0  0  0  0  0  0  0  0  0  0  0
    5.1082    4.9378   10.7895 H   0  0  0  0  0  0  0  0  0  0  0  0
    4.3287    1.1420   12.6249 H   0  0  0  0  0  0  0  0  0  0  0  0
  1  2  2  0  0  0  0
  1 96  1  0  0  0  0
  2  3  1  0  0  0  0
  3  4  2  0  0  0  0
  3  7  1  0  0  0  0
  4  5  1  0  0  0  0
  5  6  2  0  0  0  0
  5 99  1  0  0  0  0
  6  1  1  0  0  0  0
  6 24  1  0  0  0  0
  7  8  1  0  0  0  0
  7 11  2  0  0  0  0
  8  9  1  0  0  0  0
  9 10  2  0  0  0  0
 10  4  1  0  0  0  0
 11 12  1  0  0  0  0
 11 18  1  0  0  0  0
 12 13  2  0  0  0  0
 13 14  1  0  0  0  0
 14  8  1  0  0  0  0
 14 15  2  0  0  0  0
 15 16  1  0  0  0  0
 15101  1  0  0  0  0
 16 17  2  0  0  0  0
 16 26  1  0  0  0  0
 17  9  1  0  0  0  0
 17100  1  0  0  0  0
 18 19  2  0  0  0  0
 19 20  1  0  0  0  0
 19 97  1  0  0  0  0
 20 21  2  0  0  0  0
 20 25  1  0  0  0  0
 21 12  1  0  0  0  0
 21 98  1  0  0  0  0
 22  2  1  0  0  0  0
 23 18  1  0  0  0  0
 24 69  2  0  0  0  0
 24 70  1  0  0  0  0
 25 57  1  0  0  0  0
 25 59  2  0  0  0  0
 26 54  2  0  0  0  0
 26 55  1  0  0  0  0
 27 28  2  0  0  0  0
 27 95  1  0  0  0  0
 28 29  1  0  0  0  0
 28 48  1  0  0  0  0
 29 30  2  0  0  0  0
 29 33  1  0  0  0  0
 30 31  1  0  0  0  0
 31 32  2  0  0  0  0
 31 93  1  0  0  0  0
 32 27  1  0  0  0  0
 32 50  1  0  0  0  0
 33 37  2  0  0  0  0
 34 33  1  0  0  0  0
 34 35  1  0  0  0  0
 35 36  2  0  0  0  0
 36 30  1  0  0  0  0
 37 38  1  0  0  0  0
 37 44  1  0  0  0  0
 38 39  2  0  0  0  0
 39 40  1  0  0  0  0
 40 34  1  0  0  0  0
 40 41  2  0  0  0  0
 41 42  1  0  0  0  0
 41 90  1  0  0  0  0
 42 43  2  0  0  0  0
 42 52  1  0  0  0  0
 43 35  1  0  0  0  0
 43 91  1  0  0  0  0
 44 45  2  0  0  0  0
 44 49  1  0  0  0  0
 45 46  1  0  0  0  0
 45 94  1  0  0  0  0
 46 47  2  0  0  0  0
 46 51  1  0  0  0  0
 47 38  1  0  0  0  0
 47 92  1  0  0  0  0
 50 60  2  0  0  0  0
 50 61  1  0  0  0  0
 51 66  2  0  0  0  0
 51 67  1  0  0  0  0
 52 63  2  0  0  0  0
 52 64  1  0  0  0  0
 53 49  1  0  0  0  0
 53 22  1  0  0  0  0
 53 48  1  0  0  0  0
 53 23  1  0  0  0  0
 55 56  1  0  0  0  0
 56 87  1  0  0  0  0
 56 88  1  0  0  0  0
 56 89  1  0  0  0  0
 57 58  1  0  0  0  0
 58 84  1  0  0  0  0
 58 85  1  0  0  0  0
 58 86  1  0  0  0  0
 61 62  1  0  0  0  0
 62 81  1  0  0  0  0
 62 82  1  0  0  0  0
 62 83  1  0  0  0  0
 64 65  1  0  0  0  0
 65 72  1  0  0  0  0
 65 73  1  0  0  0  0
 65 74  1  0  0  0  0
 67 68  1  0  0  0  0
 68 75  1  0  0  0  0
 68 76  1  0  0  0  0
 68 77  1  0  0  0  0
 70 71  1  0  0  0  0
 71 78  1  0  0  0  0
 71 79  1  0  0  0  0
 71 80  1  0  0  0  0
102103  2  0  0  0  0
102197  1  0  0  0  0
103104  1  0  0  0  0
104105  2  0  0  0  0
104108  1  0  0  0  0
105106  1  0  0  0  0
106107  2  0  0  0  0
106200  1  0  0  0  0
107102  1  0  0  0  0
107125  1  0  0  0  0
108109  1  0  0  0  0
108112  2  0  0  0  0
109110  1  0  0  0  0
110111  2  0  0  0  0
111105  1  0  0  0  0
112113  1  0  0  0  0
112119  1  0  0  0  0
113114  2  0  0  0  0
114115  1  0  0  0  0
115109  1  0  0  0  0
115116  2  0  0  0  0
116117  1  0  0  0  0
116202  1  0  0  0  0
117118  2  0  0  0  0
117127  1  0  0  0  0
118110  1  0  0  0  0
118201  1  0  0  0  0
119120  2  0  0  0  0
120121  1  0  0  0  0
120198  1  0  0  0  0
121122  2  0  0  0  0
121126  1  0  0  0  0
122113  1  0  0  0  0
122199  1  0  0  0  0
123103  1  0  0  0  0
124119  1  0  0  0  0
125170  2  0  0  0  0
125171  1  0  0  0  0
126158  1  0  0  0  0
126160  2  0  0  0  0
127155  2  0  0  0  0
127156  1  0  0  0  0
128129  2  0  0  0  0
128196  1  0  0  0  0
129130  1  0  0  0  0
129149  1  0  0  0  0
130131  2  0  0  0  0
130134  1  0  0  0  0
131132  1  0  0  0  0
132133  2  0  0  0  0
132194  1  0  0  0  0
133128  1  0  0  0  0
133151  1  0  0  0  0
134138  2  0  0  0  0
135134  1  0  0  0  0
135136  1  0  0  0  0
136137  2  0  0  0  0
137131  1  0  0  0  0
138139  1  0  0  0  0
138145  1  0  0  0  0
139140  2  0  0  0  0
140141  1  0  0  0  0
141135  1  0  0  0  0
141142  2  0  0  0  0
142143  1  0  0  0  0
142191  1  0  0  0  0
143144  2  0  0  0  0
143153  1  0  0  0  0
144136  1  0  0  0  0
144192  1  0  0  0  0
145146  2  0  0  0  0
145150  1  0  0  0  0
146147  1  0  0  0  0
146195  1  0  0  0  0
147148  2  0  0  0  0
147152  1  0  0  0  0
148139  1  0  0  0  0
148193  1  0  0  0  0
151161  2  0  0  0  0
151162  1  0  0  0  0
152167  2  0  0  0  0
152168  1  0  0  0  0
153164  2  0  0  0  0
153165  1  0  0  0  0
154150  1  0  0  0  0
154123  1  0  0  0  0
154149  1  0  0  0  0
154124  1  0  0  0  0
156157  1  0  0  0  0
157188  1  0  0  0  0
157189  1  0  0  0  0
157190  1  0  0  0  0
158159  1  0  0  0  0
159185  1  0  0  0  0
159186  1  0  0  0  0
159187  1  0  0  0  0
162163  1  0  0  0  0
163182  1  0  0  0  0
163183  1  0  0  0  0
163184  1  0  0  0  0
165166  1  0  0  0  0
166173  1  0  0  0  0
166174  1  0  0  0  0
166175  1  0  0  0  0
168169  1  0  0  0  0
169176  1  0  0  0  0
169177  1  0  0  0  0
169178  1  0  0  0  0
171172  1  0  0  0  0
172179  1  0  0  0  0
172180  1  0  0  0  0
172181  1  0  0  0  0
M  CHG  1   8   1
M  CHG  1  53  -1
M  CHG  1 109   1
M  CHG  1 154  -1
M  END
