 energy: -26.793728629030 gnorm: 0.001887837902 xtb: 6.7.1 (edcfbbe)
          02242516103D

150158  0     0  0            999 V2000
   -2.7144    5.5431    0.9087 C   0  0  0  0  0  0  0  0  0  0  0  0
    2.0563    0.3439    3.0895 C   0  0  0  0  0  0  0  0  0  0  0  0
   -4.2303    1.3403   -1.4417 C   0  0  0  0  0  0  0  0  0  0  0  0
   -3.1759    0.9036   -0.6418 C   0  0  0  0  0  0  0  0  0  0  0  0
   -2.6754    1.7875    0.3700 C   0  0  0  0  0  0  0  0  0  0  0  0
   -3.0676    3.1526    0.3282 C   0  0  0  0  0  0  0  0  0  0  0  0
   -4.1260    3.5158   -0.5040 C   0  0  0  0  0  0  0  0  0  0  0  0
   -4.7178    2.6233   -1.3587 C   0  0  0  0  0  0  0  0  0  0  0  0
   -1.7043    1.3733    1.3447 C   0  0  0  0  0  0  0  0  0  0  0  0
   -0.9096    2.3778    1.9537 C   0  0  0  0  0  0  0  0  0  0  0  0
   -1.3101    3.7394    1.9015 C   0  0  0  0  0  0  0  0  0  0  0  0
   -2.3780    4.1127    1.0797 N   0  0  0  0  0  0  0  0  0  0  0  0
   -1.5183    0.0210    1.8097 C   0  0  0  0  0  0  0  0  0  0  0  0
   -0.2716   -0.3372    2.3936 C   0  0  0  0  0  0  0  0  0  0  0  0
    0.6672    0.6647    2.6900 N   0  0  0  0  0  0  0  0  0  0  0  0
    0.2604    2.0065    2.6629 C   0  0  0  0  0  0  0  0  0  0  0  0
    0.9301    2.9881    3.3825 C   0  0  0  0  0  0  0  0  0  0  0  0
    0.4343    4.2660    3.4838 C   0  0  0  0  0  0  0  0  0  0  0  0
   -0.6492    4.6465    2.7270 C   0  0  0  0  0  0  0  0  0  0  0  0
   -2.5857   -0.9349    1.8184 C   0  0  0  0  0  0  0  0  0  0  0  0
   -2.3002   -2.2453    2.1929 C   0  0  0  0  0  0  0  0  0  0  0  0
   -1.0521   -2.6101    2.6372 C   0  0  0  0  0  0  0  0  0  0  0  0
   -0.0651   -1.6669    2.7591 C   0  0  0  0  0  0  0  0  0  0  0  0
   -3.8906   -0.5217    1.5485 O   0  0  0  0  0  0  0  0  0  0  0  0
   -2.5534   -0.3248   -0.8392 O   0  0  0  0  0  0  0  0  0  0  0  0
   -4.6889    0.6721   -2.1489 H   0  0  0  0  0  0  0  0  0  0  0  0
   -4.5133    4.5181   -0.4876 H   0  0  0  0  0  0  0  0  0  0  0  0
   -3.0733   -2.9935    2.1882 H   0  0  0  0  0  0  0  0  0  0  0  0
    0.8622   -1.9850    3.1979 H   0  0  0  0  0  0  0  0  0  0  0  0
    1.8045    2.7397    3.9549 H   0  0  0  0  0  0  0  0  0  0  0  0
   -1.0115    5.6528    2.8394 H   0  0  0  0  0  0  0  0  0  0  0  0
    3.0812    0.7258    2.0323 C   0  0  0  0  0  0  0  0  0  0  0  0
    4.5123    0.4781    2.4909 C   0  0  0  0  0  0  0  0  0  0  0  0
   -3.8635    5.9774    1.8087 C   0  0  0  0  0  0  0  0  0  0  0  0
   -4.3317    7.4006    1.5519 C   0  0  0  0  0  0  0  0  0  0  0  0
   -4.7236   -1.5059    0.9807 C   0  0  0  0  0  0  0  0  0  0  0  0
   -2.8329   -0.9525   -2.0683 C   0  0  0  0  0  0  0  0  0  0  0  0
   -6.1685    3.1852   -2.4507 S   0  0  0  0  0  0  0  0  0  0  0  0
   -5.8713    4.6781   -2.0005 F   0  0  0  0  0  0  0  0  0  0  0  0
   -5.1148    3.3295   -3.6310 F   0  0  0  0  0  0  0  0  0  0  0  0
   -7.1171    2.9981   -1.1895 F   0  0  0  0  0  0  0  0  0  0  0  0
   -7.3707    3.6550   -3.3712 F   0  0  0  0  0  0  0  0  0  0  0  0
   -6.3982    1.6661   -2.8471 F   0  0  0  0  0  0  0  0  0  0  0  0
   -0.6948   -4.4088    3.1233 S   0  0  0  0  0  0  0  0  0  0  0  0
   -1.8840   -4.8490    2.1743 F   0  0  0  0  0  0  0  0  0  0  0  0
   -1.7201   -4.2313    4.3134 F   0  0  0  0  0  0  0  0  0  0  0  0
   -0.3808   -5.8940    3.5439 F   0  0  0  0  0  0  0  0  0  0  0  0
    0.3108   -4.4663    1.8991 F   0  0  0  0  0  0  0  0  0  0  0  0
    0.4668   -3.8687    4.0466 F   0  0  0  0  0  0  0  0  0  0  0  0
    1.2089    5.4608    4.7407 S   0  0  0  0  0  0  0  0  0  0  0  0
    2.4203    5.6417    3.7377 F   0  0  0  0  0  0  0  0  0  0  0  0
    0.4300    6.6394    4.0276 F   0  0  0  0  0  0  0  0  0  0  0  0
    1.8255    6.4325    5.8201 F   0  0  0  0  0  0  0  0  0  0  0  0
   -0.0557    5.1549    5.6442 F   0  0  0  0  0  0  0  0  0  0  0  0
    1.9300    4.2157    5.3983 F   0  0  0  0  0  0  0  0  0  0  0  0
    2.1616   -0.7107    3.3383 H   0  0  0  0  0  0  0  0  0  0  0  0
    2.2837    0.8521    4.0252 H   0  0  0  0  0  0  0  0  0  0  0  0
    2.9468    1.7811    1.7650 H   0  0  0  0  0  0  0  0  0  0  0  0
    2.8697    0.1669    1.1124 H   0  0  0  0  0  0  0  0  0  0  0  0
    4.7388    1.0474    3.3953 H   0  0  0  0  0  0  0  0  0  0  0  0
    5.2443    0.7525    1.7300 H   0  0  0  0  0  0  0  0  0  0  0  0
    4.6672   -0.5732    2.7423 H   0  0  0  0  0  0  0  0  0  0  0  0
   -2.1779   -1.8202   -2.1592 H   0  0  0  0  0  0  0  0  0  0  0  0
   -2.6301   -0.2603   -2.8869 H   0  0  0  0  0  0  0  0  0  0  0  0
   -3.8711   -1.2850   -2.0938 H   0  0  0  0  0  0  0  0  0  0  0  0
   -5.6413   -1.0182    0.6470 H   0  0  0  0  0  0  0  0  0  0  0  0
   -4.9656   -2.2751    1.7123 H   0  0  0  0  0  0  0  0  0  0  0  0
   -4.2146   -1.9526    0.1268 H   0  0  0  0  0  0  0  0  0  0  0  0
   -2.9545    5.7228   -0.1420 H   0  0  0  0  0  0  0  0  0  0  0  0
   -1.8260    6.1523    1.0878 H   0  0  0  0  0  0  0  0  0  0  0  0
   -3.5665    5.8559    2.8590 H   0  0  0  0  0  0  0  0  0  0  0  0
   -4.7004    5.2765    1.6859 H   0  0  0  0  0  0  0  0  0  0  0  0
   -3.5228    8.1164    1.7050 H   0  0  0  0  0  0  0  0  0  0  0  0
   -5.1524    7.6814    2.2151 H   0  0  0  0  0  0  0  0  0  0  0  0
   -4.6839    7.5207    0.5262 H   0  0  0  0  0  0  0  0  0  0  0  0
   -0.0164    2.4087    6.4280 C   0  0  0  0  0  0  0  0  0  0  0  0
    0.6223   -4.9093    7.2501 C   0  0  0  0  0  0  0  0  0  0  0  0
   -4.4049    0.5399    4.5084 C   0  0  0  0  0  0  0  0  0  0  0  0
   -3.7335   -0.5761    5.0015 C   0  0  0  0  0  0  0  0  0  0  0  0
   -2.5318   -0.3733    5.7549 C   0  0  0  0  0  0  0  0  0  0  0  0
   -1.9456    0.9227    5.7740 C   0  0  0  0  0  0  0  0  0  0  0  0
   -2.6734    1.9904    5.2485 C   0  0  0  0  0  0  0  0  0  0  0  0
   -3.8920    1.8072    4.6487 C   0  0  0  0  0  0  0  0  0  0  0  0
   -1.8272   -1.4651    6.3813 C   0  0  0  0  0  0  0  0  0  0  0  0
   -0.4179   -1.3442    6.4842 C   0  0  0  0  0  0  0  0  0  0  0  0
    0.1842   -0.0674    6.3504 C   0  0  0  0  0  0  0  0  0  0  0  0
   -0.6175    1.0743    6.2048 N   0  0  0  0  0  0  0  0  0  0  0  0
   -2.4286   -2.6905    6.8309 C   0  0  0  0  0  0  0  0  0  0  0  0
   -1.6074   -3.8375    7.0013 C   0  0  0  0  0  0  0  0  0  0  0  0
   -0.2132   -3.7312    6.9272 N   0  0  0  0  0  0  0  0  0  0  0  0
    0.3902   -2.5001    6.6541 C   0  0  0  0  0  0  0  0  0  0  0  0
    1.7647   -2.3684    6.4717 C   0  0  0  0  0  0  0  0  0  0  0  0
    2.3406   -1.1402    6.2474 C   0  0  0  0  0  0  0  0  0  0  0  0
    1.5702   -0.0019    6.2778 C   0  0  0  0  0  0  0  0  0  0  0  0
   -3.8057   -2.7755    7.2209 C   0  0  0  0  0  0  0  0  0  0  0  0
   -4.3452   -4.0341    7.4810 C   0  0  0  0  0  0  0  0  0  0  0  0
   -3.5685   -5.1690    7.4823 C   0  0  0  0  0  0  0  0  0  0  0  0
   -2.2193   -5.0612    7.2701 C   0  0  0  0  0  0  0  0  0  0  0  0
   -4.5321   -1.6025    7.3922 O   0  0  0  0  0  0  0  0  0  0  0  0
   -4.1431   -1.8740    4.7065 O   0  0  0  0  0  0  0  0  0  0  0  0
   -5.3269    0.4277    3.9655 H   0  0  0  0  0  0  0  0  0  0  0  0
   -2.2793    2.9895    5.2539 H   0  0  0  0  0  0  0  0  0  0  0  0
   -5.3939   -4.1424    7.6940 H   0  0  0  0  0  0  0  0  0  0  0  0
   -1.6386   -5.9649    7.2999 H   0  0  0  0  0  0  0  0  0  0  0  0
    2.3998   -3.2356    6.4346 H   0  0  0  0  0  0  0  0  0  0  0  0
    2.0628    0.9429    6.1419 H   0  0  0  0  0  0  0  0  0  0  0  0
    0.8421   -5.8117    6.0431 C   0  0  0  0  0  0  0  0  0  0  0  0
    1.5822   -7.0982    6.3707 C   0  0  0  0  0  0  0  0  0  0  0  0
    0.2497    2.7038    7.8959 C   0  0  0  0  0  0  0  0  0  0  0  0
    0.9354    4.0478    8.1036 C   0  0  0  0  0  0  0  0  0  0  0  0
   -5.7631   -1.7453    8.0593 C   0  0  0  0  0  0  0  0  0  0  0  0
   -5.5112   -2.0196    4.4119 C   0  0  0  0  0  0  0  0  0  0  0  0
   -4.8425    3.3082    3.9816 S   0  0  0  0  0  0  0  0  0  0  0  0
   -4.9933    3.7903    5.4842 F   0  0  0  0  0  0  0  0  0  0  0  0
   -3.4622    4.0688    3.8792 F   0  0  0  0  0  0  0  0  0  0  0  0
   -6.1731    2.4593    4.1143 F   0  0  0  0  0  0  0  0  0  0  0  0
   -5.6121    4.5646    3.4241 F   0  0  0  0  0  0  0  0  0  0  0  0
   -4.6239    2.7291    2.5275 F   0  0  0  0  0  0  0  0  0  0  0  0
   -4.3333   -6.8764    7.8227 S   0  0  0  0  0  0  0  0  0  0  0  0
   -4.4938   -7.0546    6.2516 F   0  0  0  0  0  0  0  0  0  0  0  0
   -5.7557   -6.1768    7.8850 F   0  0  0  0  0  0  0  0  0  0  0  0
   -4.9698   -8.2983    8.1171 F   0  0  0  0  0  0  0  0  0  0  0  0
   -2.8750   -7.4991    7.7459 F   0  0  0  0  0  0  0  0  0  0  0  0
   -4.1182   -6.5718    9.3671 F   0  0  0  0  0  0  0  0  0  0  0  0
    4.1811   -1.0037    5.7995 S   0  0  0  0  0  0  0  0  0  0  0  0
    3.8856    0.4625    5.2850 F   0  0  0  0  0  0  0  0  0  0  0  0
    4.4403   -0.4488    7.2587 F   0  0  0  0  0  0  0  0  0  0  0  0
    5.6954   -0.8856    5.3736 F   0  0  0  0  0  0  0  0  0  0  0  0
    4.3703   -2.4867    6.3184 F   0  0  0  0  0  0  0  0  0  0  0  0
    3.7578   -1.5482    4.3733 F   0  0  0  0  0  0  0  0  0  0  0  0
    0.1484   -5.4607    8.0658 H   0  0  0  0  0  0  0  0  0  0  0  0
    1.5750   -4.5780    7.6685 H   0  0  0  0  0  0  0  0  0  0  0  0
    1.3770   -5.2507    5.2652 H   0  0  0  0  0  0  0  0  0  0  0  0
   -0.1295   -6.0422    5.5860 H   0  0  0  0  0  0  0  0  0  0  0  0
    2.5671   -6.8916    6.7917 H   0  0  0  0  0  0  0  0  0  0  0  0
    1.7249   -7.7188    5.4836 H   0  0  0  0  0  0  0  0  0  0  0  0
    1.0331   -7.6938    7.1017 H   0  0  0  0  0  0  0  0  0  0  0  0
   -5.7261   -3.0868    4.3326 H   0  0  0  0  0  0  0  0  0  0  0  0
   -5.7505   -1.5284    3.4704 H   0  0  0  0  0  0  0  0  0  0  0  0
   -6.1001   -1.5863    5.2203 H   0  0  0  0  0  0  0  0  0  0  0  0
   -6.1739   -0.7481    8.2236 H   0  0  0  0  0  0  0  0  0  0  0  0
   -5.6029   -2.2323    9.0225 H   0  0  0  0  0  0  0  0  0  0  0  0
   -6.4575   -2.3206    7.4461 H   0  0  0  0  0  0  0  0  0  0  0  0
   -0.6360    3.1959    6.0020 H   0  0  0  0  0  0  0  0  0  0  0  0
    0.9107    2.4807    5.8617 H   0  0  0  0  0  0  0  0  0  0  0  0
    0.8594    1.8970    8.3210 H   0  0  0  0  0  0  0  0  0  0  0  0
   -0.6990    2.6672    8.4453 H   0  0  0  0  0  0  0  0  0  0  0  0
    1.8883    4.0887    7.5709 H   0  0  0  0  0  0  0  0  0  0  0  0
    1.1308    4.2548    9.1569 H   0  0  0  0  0  0  0  0  0  0  0  0
    0.3269    4.8640    7.7081 H   0  0  0  0  0  0  0  0  0  0  0  0
  1 34  1  0  0  0  0
  1 69  1  0  0  0  0
  1 70  1  0  0  0  0
  2 32  1  0  0  0  0
  2 56  1  0  0  0  0
  2 57  1  0  0  0  0
  3  4  2  0  0  0  0
  3 26  1  0  0  0  0
  4  5  1  0  0  0  0
  4 25  1  0  0  0  0
  5  6  2  0  0  0  0
  5  9  1  0  0  0  0
  6  7  1  0  0  0  0
  7  8  2  0  0  0  0
  7 27  1  0  0  0  0
  8 38  1  0  0  0  0
  8  3  1  0  0  0  0
  9 10  1  0  0  0  0
 10 11  2  0  0  0  0
 11 12  1  0  0  0  0
 12  1  1  0  0  0  0
 12  6  1  0  0  0  0
 13 14  2  0  0  0  0
 13 20  1  0  0  0  0
 13  9  1  0  0  0  0
 14 15  1  0  0  0  0
 15  2  1  0  0  0  0
 15 16  1  0  0  0  0
 16 10  1  0  0  0  0
 16 17  2  0  0  0  0
 17 18  1  0  0  0  0
 17 30  1  0  0  0  0
 18 50  1  0  0  0  0
 18 19  2  0  0  0  0
 19 11  1  0  0  0  0
 19 31  1  0  0  0  0
 20 21  2  0  0  0  0
 21 22  1  0  0  0  0
 21 28  1  0  0  0  0
 22 44  1  0  0  0  0
 22 23  2  0  0  0  0
 23 14  1  0  0  0  0
 23 29  1  0  0  0  0
 24 36  1  0  0  0  0
 24 20  1  0  0  0  0
 25 37  1  0  0  0  0
 32 33  1  0  0  0  0
 32 58  1  0  0  0  0
 32 59  1  0  0  0  0
 33 60  1  0  0  0  0
 33 61  1  0  0  0  0
 33 62  1  0  0  0  0
 34 35  1  0  0  0  0
 34 71  1  0  0  0  0
 34 72  1  0  0  0  0
 35 73  1  0  0  0  0
 35 74  1  0  0  0  0
 35 75  1  0  0  0  0
 36 66  1  0  0  0  0
 36 67  1  0  0  0  0
 36 68  1  0  0  0  0
 37 63  1  0  0  0  0
 37 64  1  0  0  0  0
 37 65  1  0  0  0  0
 38 39  1  0  0  0  0
 38 40  1  0  0  0  0
 38 41  1  0  0  0  0
 38 42  1  0  0  0  0
 38 43  1  0  0  0  0
 44 45  1  0  0  0  0
 44 46  1  0  0  0  0
 44 47  1  0  0  0  0
 44 48  1  0  0  0  0
 44 49  1  0  0  0  0
 50 51  1  0  0  0  0
 50 52  1  0  0  0  0
 50 53  1  0  0  0  0
 50 54  1  0  0  0  0
 50 55  1  0  0  0  0
 76109  1  0  0  0  0
 76144  1  0  0  0  0
 76145  1  0  0  0  0
 77107  1  0  0  0  0
 77131  1  0  0  0  0
 77132  1  0  0  0  0
 78 79  2  0  0  0  0
 78101  1  0  0  0  0
 79 80  1  0  0  0  0
 79100  1  0  0  0  0
 80 81  2  0  0  0  0
 80 84  1  0  0  0  0
 81 82  1  0  0  0  0
 82 83  2  0  0  0  0
 82102  1  0  0  0  0
 83113  1  0  0  0  0
 83 78  1  0  0  0  0
 84 85  1  0  0  0  0
 85 86  2  0  0  0  0
 86 87  1  0  0  0  0
 87 76  1  0  0  0  0
 87 81  1  0  0  0  0
 88 89  2  0  0  0  0
 88 95  1  0  0  0  0
 88 84  1  0  0  0  0
 89 90  1  0  0  0  0
 90 77  1  0  0  0  0
 90 91  1  0  0  0  0
 91 85  1  0  0  0  0
 91 92  2  0  0  0  0
 92 93  1  0  0  0  0
 92105  1  0  0  0  0
 93125  1  0  0  0  0
 93 94  2  0  0  0  0
 94 86  1  0  0  0  0
 94106  1  0  0  0  0
 95 96  2  0  0  0  0
 96 97  1  0  0  0  0
 96103  1  0  0  0  0
 97119  1  0  0  0  0
 97 98  2  0  0  0  0
 98 89  1  0  0  0  0
 98104  1  0  0  0  0
 99111  1  0  0  0  0
 99 95  1  0  0  0  0
100112  1  0  0  0  0
107108  1  0  0  0  0
107133  1  0  0  0  0
107134  1  0  0  0  0
108135  1  0  0  0  0
108136  1  0  0  0  0
108137  1  0  0  0  0
109110  1  0  0  0  0
109146  1  0  0  0  0
109147  1  0  0  0  0
110148  1  0  0  0  0
110149  1  0  0  0  0
110150  1  0  0  0  0
111141  1  0  0  0  0
111142  1  0  0  0  0
111143  1  0  0  0  0
112138  1  0  0  0  0
112139  1  0  0  0  0
112140  1  0  0  0  0
113114  1  0  0  0  0
113115  1  0  0  0  0
113116  1  0  0  0  0
113117  1  0  0  0  0
113118  1  0  0  0  0
119120  1  0  0  0  0
119121  1  0  0  0  0
119122  1  0  0  0  0
119123  1  0  0  0  0
119124  1  0  0  0  0
125126  1  0  0  0  0
125127  1  0  0  0  0
125128  1  0  0  0  0
125129  1  0  0  0  0
125130  1  0  0  0  0
M  END
