energy: -166.141801994367 gnorm: 0.000167719447 xtb: 6.7.1 (edcfbbe)_energy: -166.141801994367 gnorm: 0.000167719447 xtb: 6.7.1 (edcfbbe)
 OpenBabel02242516093D

150158  0  0  0  0  0  0  0  0999 V2000
    0.0565    3.8155    0.3637 C   0  0  0  0  0  0  0  0  0  0  0  0
    0.5349   -3.3618    1.8570 C   0  0  0  0  0  0  0  0  0  0  0  0
   -4.1087    1.5558   -1.4908 C   0  0  0  0  0  0  0  0  0  0  0  0
   -3.4769    0.6047   -0.6971 C   0  0  0  0  0  0  0  0  0  0  0  0
   -2.2823    0.9485   -0.0070 C   0  0  0  0  0  0  0  0  0  0  0  0
   -1.6401    2.1760   -0.2895 C   0  0  0  0  0  0  0  0  0  0  0  0
   -2.2764    3.1084   -1.1142 C   0  0  0  0  0  0  0  0  0  0  0  0
   -3.4967    2.7770   -1.6458 C   0  0  0  0  0  0  0  0  0  0  0  0
   -1.6513    0.0548    0.9112 C   0  0  0  0  0  0  0  0  0  0  0  0
   -0.2442    0.1802    1.0641 C   0  0  0  0  0  0  0  0  0  0  0  0
    0.3872    1.3947    0.7059 C   0  0  0  0  0  0  0  0  0  0  0  0
   -0.3939    2.4389    0.2514 N   0  0  0  0  0  0  0  0  0  0  0  0
   -2.2959   -0.9568    1.6868 C   0  0  0  0  0  0  0  0  0  0  0  0
   -1.5252   -2.0637    2.1103 C   0  0  0  0  0  0  0  0  0  0  0  0
   -0.1651   -2.0888    1.8587 N   0  0  0  0  0  0  0  0  0  0  0  0
    0.4983   -0.9118    1.5721 C   0  0  0  0  0  0  0  0  0  0  0  0
    1.8717   -0.7557    1.7672 C   0  0  0  0  0  0  0  0  0  0  0  0
    2.4521    0.4234    1.3666 C   0  0  0  0  0  0  0  0  0  0  0  0
    1.7753    1.4878    0.8220 C   0  0  0  0  0  0  0  0  0  0  0  0
   -3.6506   -0.8426    2.1023 C   0  0  0  0  0  0  0  0  0  0  0  0
   -4.2642   -1.9141    2.7419 C   0  0  0  0  0  0  0  0  0  0  0  0
   -3.4983   -3.0197    3.0269 C   0  0  0  0  0  0  0  0  0  0  0  0
   -2.1532   -3.1198    2.7774 C   0  0  0  0  0  0  0  0  0  0  0  0
   -4.2520    0.3429    1.8857 O   0  0  0  0  0  0  0  0  0  0  0  0
   -3.9040   -0.6666   -0.5728 O   0  0  0  0  0  0  0  0  0  0  0  0
   -5.0423    1.3683   -1.9882 H   0  0  0  0  0  0  0  0  0  0  0  0
   -1.8488    4.0628   -1.3542 H   0  0  0  0  0  0  0  0  0  0  0  0
   -5.3010   -1.9055    3.0230 H   0  0  0  0  0  0  0  0  0  0  0  0
   -1.6293   -3.9966    3.1060 H   0  0  0  0  0  0  0  0  0  0  0  0
    2.4882   -1.5062    2.2259 H   0  0  0  0  0  0  0  0  0  0  0  0
    2.3356    2.3438    0.4950 H   0  0  0  0  0  0  0  0  0  0  0  0
    0.0187   -4.2808    0.7434 C   0  0  0  0  0  0  0  0  0  0  0  0
    0.7760   -5.6026    0.7487 C   0  0  0  0  0  0  0  0  0  0  0  0
   -0.8477    4.6249    1.3010 C   0  0  0  0  0  0  0  0  0  0  0  0
   -0.3481    6.0596    1.4153 C   0  0  0  0  0  0  0  0  0  0  0  0
   -5.5930    0.5145    2.2967 C   0  0  0  0  0  0  0  0  0  0  0  0
   -5.0770   -1.0648   -1.2526 C   0  0  0  0  0  0  0  0  0  0  0  0
   -4.3787    4.0558   -2.6198 S   0  0  0  0  0  0  0  0  0  0  0  0
   -4.0454    5.2413   -1.4970 F   0  0  0  0  0  0  0  0  0  0  0  0
   -3.0101    4.4851   -3.4614 F   0  0  0  0  0  0  0  0  0  0  0  0
   -5.8257    3.7404   -1.8557 F   0  0  0  0  0  0  0  0  0  0  0  0
   -5.1614    5.1854   -3.4641 F   0  0  0  0  0  0  0  0  0  0  0  0
   -4.7904    2.9827   -3.8217 F   0  0  0  0  0  0  0  0  0  0  0  0
   -4.3370   -4.4691    3.7738 S   0  0  0  0  0  0  0  0  0  0  0  0
   -5.6168   -4.3643    2.7112 F   0  0  0  0  0  0  0  0  0  0  0  0
   -5.1769   -3.5340    4.8626 F   0  0  0  0  0  0  0  0  0  0  0  0
   -5.0779   -5.7496    4.4162 F   0  0  0  0  0  0  0  0  0  0  0  0
   -3.5704   -5.5311    2.7430 F   0  0  0  0  0  0  0  0  0  0  0  0
   -3.1300   -4.7033    4.8936 F   0  0  0  0  0  0  0  0  0  0  0  0
    4.2676    0.5897    1.5759 S   0  0  0  0  0  0  0  0  0  0  0  0
    4.5522   -0.9456    1.0022 F   0  0  0  0  0  0  0  0  0  0  0  0
    4.4668    1.2036    0.0443 F   0  0  0  0  0  0  0  0  0  0  0  0
    5.8617    0.7363    1.7600 F   0  0  0  0  0  0  0  0  0  0  0  0
    4.1344    2.1390    2.1674 F   0  0  0  0  0  0  0  0  0  0  0  0
    4.2223   -0.0098    3.1252 F   0  0  0  0  0  0  0  0  0  0  0  0
    0.4394   -3.8494    2.8307 H   0  0  0  0  0  0  0  0  0  0  0  0
    1.5917   -3.1788    1.6761 H   0  0  0  0  0  0  0  0  0  0  0  0
    0.1577   -3.7782   -0.2158 H   0  0  0  0  0  0  0  0  0  0  0  0
   -1.0470   -4.4717    0.8716 H   0  0  0  0  0  0  0  0  0  0  0  0
    1.8418   -5.4380    0.6091 H   0  0  0  0  0  0  0  0  0  0  0  0
    0.4196   -6.2423   -0.0532 H   0  0  0  0  0  0  0  0  0  0  0  0
    0.6266   -6.1236    1.6908 H   0  0  0  0  0  0  0  0  0  0  0  0
   -5.2227   -2.1106   -0.9862 H   0  0  0  0  0  0  0  0  0  0  0  0
   -4.9582   -0.9746   -2.3357 H   0  0  0  0  0  0  0  0  0  0  0  0
   -5.9443   -0.4816   -0.9326 H   0  0  0  0  0  0  0  0  0  0  0  0
   -5.8539    1.5320    2.0098 H   0  0  0  0  0  0  0  0  0  0  0  0
   -5.6942    0.4006    3.3794 H   0  0  0  0  0  0  0  0  0  0  0  0
   -6.2603   -0.1901    1.7935 H   0  0  0  0  0  0  0  0  0  0  0  0
    0.1004    4.2831   -0.6235 H   0  0  0  0  0  0  0  0  0  0  0  0
    1.0604    3.8211    0.7821 H   0  0  0  0  0  0  0  0  0  0  0  0
   -0.8430    4.1516    2.2847 H   0  0  0  0  0  0  0  0  0  0  0  0
   -1.8739    4.6256    0.9330 H   0  0  0  0  0  0  0  0  0  0  0  0
    0.6712    6.0851    1.7933 H   0  0  0  0  0  0  0  0  0  0  0  0
   -0.9803    6.6239    2.0946 H   0  0  0  0  0  0  0  0  0  0  0  0
   -0.3700    6.5492    0.4451 H   0  0  0  0  0  0  0  0  0  0  0  0
    0.0565    3.8155    6.3637 C   0  0  0  0  0  0  0  0  0  0  0  0
    0.5349   -3.3618    7.8570 C   0  0  0  0  0  0  0  0  0  0  0  0
   -4.1087    1.5558    4.5092 C   0  0  0  0  0  0  0  0  0  0  0  0
   -3.4769    0.6047    5.3029 C   0  0  0  0  0  0  0  0  0  0  0  0
   -2.2823    0.9485    5.9930 C   0  0  0  0  0  0  0  0  0  0  0  0
   -1.6401    2.1760    5.7105 C   0  0  0  0  0  0  0  0  0  0  0  0
   -2.2764    3.1084    4.8858 C   0  0  0  0  0  0  0  0  0  0  0  0
   -3.4967    2.7770    4.3542 C   0  0  0  0  0  0  0  0  0  0  0  0
   -1.6513    0.0548    6.9112 C   0  0  0  0  0  0  0  0  0  0  0  0
   -0.2442    0.1802    7.0641 C   0  0  0  0  0  0  0  0  0  0  0  0
    0.3872    1.3947    6.7059 C   0  0  0  0  0  0  0  0  0  0  0  0
   -0.3939    2.4389    6.2514 N   0  0  0  0  0  0  0  0  0  0  0  0
   -2.2959   -0.9568    7.6868 C   0  0  0  0  0  0  0  0  0  0  0  0
   -1.5252   -2.0637    8.1103 C   0  0  0  0  0  0  0  0  0  0  0  0
   -0.1651   -2.0888    7.8587 N   0  0  0  0  0  0  0  0  0  0  0  0
    0.4983   -0.9118    7.5721 C   0  0  0  0  0  0  0  0  0  0  0  0
    1.8717   -0.7557    7.7672 C   0  0  0  0  0  0  0  0  0  0  0  0
    2.4521    0.4234    7.3666 C   0  0  0  0  0  0  0  0  0  0  0  0
    1.7753    1.4878    6.8220 C   0  0  0  0  0  0  0  0  0  0  0  0
   -3.6506   -0.8426    8.1023 C   0  0  0  0  0  0  0  0  0  0  0  0
   -4.2642   -1.9141    8.7419 C   0  0  0  0  0  0  0  0  0  0  0  0
   -3.4983   -3.0197    9.0269 C   0  0  0  0  0  0  0  0  0  0  0  0
   -2.1532   -3.1198    8.7774 C   0  0  0  0  0  0  0  0  0  0  0  0
   -4.2520    0.3429    7.8857 O   0  0  0  0  0  0  0  0  0  0  0  0
   -3.9040   -0.6666    5.4272 O   0  0  0  0  0  0  0  0  0  0  0  0
   -5.0423    1.3683    4.0118 H   0  0  0  0  0  0  0  0  0  0  0  0
   -1.8488    4.0628    4.6458 H   0  0  0  0  0  0  0  0  0  0  0  0
   -5.3010   -1.9055    9.0230 H   0  0  0  0  0  0  0  0  0  0  0  0
   -1.6293   -3.9966    9.1060 H   0  0  0  0  0  0  0  0  0  0  0  0
    2.4882   -1.5062    8.2259 H   0  0  0  0  0  0  0  0  0  0  0  0
    2.3356    2.3438    6.4950 H   0  0  0  0  0  0  0  0  0  0  0  0
    0.0187   -4.2808    6.7434 C   0  0  0  0  0  0  0  0  0  0  0  0
    0.7760   -5.6026    6.7487 C   0  0  0  0  0  0  0  0  0  0  0  0
   -0.8477    4.6249    7.3010 C   0  0  0  0  0  0  0  0  0  0  0  0
   -0.3481    6.0596    7.4153 C   0  0  0  0  0  0  0  0  0  0  0  0
   -5.5930    0.5145    8.2967 C   0  0  0  0  0  0  0  0  0  0  0  0
   -5.0770   -1.0648    4.7474 C   0  0  0  0  0  0  0  0  0  0  0  0
   -4.3787    4.0558    3.3802 S   0  0  0  0  0  0  0  0  0  0  0  0
   -4.0454    5.2413    4.5030 F   0  0  0  0  0  0  0  0  0  0  0  0
   -3.0101    4.4851    2.5386 F   0  0  0  0  0  0  0  0  0  0  0  0
   -5.8257    3.7404    4.1443 F   0  0  0  0  0  0  0  0  0  0  0  0
   -5.1614    5.1854    2.5359 F   0  0  0  0  0  0  0  0  0  0  0  0
   -4.7904    2.9827    2.1783 F   0  0  0  0  0  0  0  0  0  0  0  0
   -4.3370   -4.4691    9.7738 S   0  0  0  0  0  0  0  0  0  0  0  0
   -5.6168   -4.3643    8.7112 F   0  0  0  0  0  0  0  0  0  0  0  0
   -5.1769   -3.5340   10.8626 F   0  0  0  0  0  0  0  0  0  0  0  0
   -5.0779   -5.7496   10.4162 F   0  0  0  0  0  0  0  0  0  0  0  0
   -3.5704   -5.5311    8.7430 F   0  0  0  0  0  0  0  0  0  0  0  0
   -3.1300   -4.7033   10.8936 F   0  0  0  0  0  0  0  0  0  0  0  0
    4.2676    0.5897    7.5759 S   0  0  0  0  0  0  0  0  0  0  0  0
    4.5522   -0.9456    7.0022 F   0  0  0  0  0  0  0  0  0  0  0  0
    4.4668    1.2036    6.0443 F   0  0  0  0  0  0  0  0  0  0  0  0
    5.8617    0.7363    7.7600 F   0  0  0  0  0  0  0  0  0  0  0  0
    4.1344    2.1390    8.1674 F   0  0  0  0  0  0  0  0  0  0  0  0
    4.2223   -0.0098    9.1252 F   0  0  0  0  0  0  0  0  0  0  0  0
    0.4394   -3.8494    8.8307 H   0  0  0  0  0  0  0  0  0  0  0  0
    1.5917   -3.1788    7.6761 H   0  0  0  0  0  0  0  0  0  0  0  0
    0.1577   -3.7782    5.7842 H   0  0  0  0  0  0  0  0  0  0  0  0
   -1.0470   -4.4717    6.8716 H   0  0  0  0  0  0  0  0  0  0  0  0
    1.8418   -5.4380    6.6091 H   0  0  0  0  0  0  0  0  0  0  0  0
    0.4196   -6.2423    5.9468 H   0  0  0  0  0  0  0  0  0  0  0  0
    0.6266   -6.1236    7.6908 H   0  0  0  0  0  0  0  0  0  0  0  0
   -5.2227   -2.1106    5.0138 H   0  0  0  0  0  0  0  0  0  0  0  0
   -4.9582   -0.9746    3.6643 H   0  0  0  0  0  0  0  0  0  0  0  0
   -5.9443   -0.4816    5.0674 H   0  0  0  0  0  0  0  0  0  0  0  0
   -5.8539    1.5320    8.0098 H   0  0  0  0  0  0  0  0  0  0  0  0
   -5.6942    0.4006    9.3794 H   0  0  0  0  0  0  0  0  0  0  0  0
   -6.2603   -0.1901    7.7935 H   0  0  0  0  0  0  0  0  0  0  0  0
    0.1004    4.2831    5.3765 H   0  0  0  0  0  0  0  0  0  0  0  0
    1.0604    3.8211    6.7821 H   0  0  0  0  0  0  0  0  0  0  0  0
   -0.8430    4.1516    8.2847 H   0  0  0  0  0  0  0  0  0  0  0  0
   -1.8739    4.6256    6.9330 H   0  0  0  0  0  0  0  0  0  0  0  0
    0.6712    6.0851    7.7933 H   0  0  0  0  0  0  0  0  0  0  0  0
   -0.9803    6.6239    8.0946 H   0  0  0  0  0  0  0  0  0  0  0  0
   -0.3700    6.5492    6.4451 H   0  0  0  0  0  0  0  0  0  0  0  0
  1 34  1  0  0  0  0
  1 69  1  0  0  0  0
  1 70  1  0  0  0  0
  2 32  1  0  0  0  0
  2 56  1  0  0  0  0
  2 57  1  0  0  0  0
  3  4  2  0  0  0  0
  3 26  1  0  0  0  0
  4  5  1  0  0  0  0
  4 25  1  0  0  0  0
  5  6  2  0  0  0  0
  5  9  1  0  0  0  0
  6  7  1  0  0  0  0
  7  8  2  0  0  0  0
  7 27  1  0  0  0  0
  8 38  1  0  0  0  0
  8  3  1  0  0  0  0
  9 10  1  0  0  0  0
 10 11  2  0  0  0  0
 11 12  1  0  0  0  0
 12  1  1  0  0  0  0
 12  6  1  0  0  0  0
 13 14  2  0  0  0  0
 13 20  1  0  0  0  0
 13  9  1  0  0  0  0
 14 15  1  0  0  0  0
 15  2  1  0  0  0  0
 15 16  1  0  0  0  0
 16 10  1  0  0  0  0
 16 17  2  0  0  0  0
 17 18  1  0  0  0  0
 17 30  1  0  0  0  0
 18 50  1  0  0  0  0
 18 19  2  0  0  0  0
 19 11  1  0  0  0  0
 19 31  1  0  0  0  0
 20 21  2  0  0  0  0
 21 22  1  0  0  0  0
 21 28  1  0  0  0  0
 22 44  1  0  0  0  0
 22 23  2  0  0  0  0
 23 14  1  0  0  0  0
 23 29  1  0  0  0  0
 24 36  1  0  0  0  0
 24 20  1  0  0  0  0
 25 37  1  0  0  0  0
 32 33  1  0  0  0  0
 32 58  1  0  0  0  0
 32 59  1  0  0  0  0
 33 60  1  0  0  0  0
 33 61  1  0  0  0  0
 33 62  1  0  0  0  0
 34 35  1  0  0  0  0
 34 71  1  0  0  0  0
 34 72  1  0  0  0  0
 35 73  1  0  0  0  0
 35 74  1  0  0  0  0
 35 75  1  0  0  0  0
 36 66  1  0  0  0  0
 36 67  1  0  0  0  0
 36 68  1  0  0  0  0
 37 63  1  0  0  0  0
 37 64  1  0  0  0  0
 37 65  1  0  0  0  0
 38 39  1  0  0  0  0
 38 40  1  0  0  0  0
 38 41  1  0  0  0  0
 38 42  1  0  0  0  0
 38 43  1  0  0  0  0
 44 45  1  0  0  0  0
 44 46  1  0  0  0  0
 44 47  1  0  0  0  0
 44 48  1  0  0  0  0
 44 49  1  0  0  0  0
 50 51  1  0  0  0  0
 50 52  1  0  0  0  0
 50 53  1  0  0  0  0
 50 54  1  0  0  0  0
 50 55  1  0  0  0  0
 76109  1  0  0  0  0
 76144  1  0  0  0  0
 76145  1  0  0  0  0
 77107  1  0  0  0  0
 77131  1  0  0  0  0
 77132  1  0  0  0  0
 78 79  2  0  0  0  0
 78101  1  0  0  0  0
 79 80  1  0  0  0  0
 79100  1  0  0  0  0
 80 81  2  0  0  0  0
 80 84  1  0  0  0  0
 81 82  1  0  0  0  0
 82 83  2  0  0  0  0
 82102  1  0  0  0  0
 83113  1  0  0  0  0
 83 78  1  0  0  0  0
 84 85  1  0  0  0  0
 85 86  2  0  0  0  0
 86 87  1  0  0  0  0
 87 76  1  0  0  0  0
 87 81  1  0  0  0  0
 88 89  2  0  0  0  0
 88 95  1  0  0  0  0
 88 84  1  0  0  0  0
 89 90  1  0  0  0  0
 90 77  1  0  0  0  0
 90 91  1  0  0  0  0
 91 85  1  0  0  0  0
 91 92  2  0  0  0  0
 92 93  1  0  0  0  0
 92105  1  0  0  0  0
 93125  1  0  0  0  0
 93 94  2  0  0  0  0
 94 86  1  0  0  0  0
 94106  1  0  0  0  0
 95 96  2  0  0  0  0
 96 97  1  0  0  0  0
 96103  1  0  0  0  0
 97119  1  0  0  0  0
 97 98  2  0  0  0  0
 98 89  1  0  0  0  0
 98104  1  0  0  0  0
 99111  1  0  0  0  0
 99 95  1  0  0  0  0
100112  1  0  0  0  0
107108  1  0  0  0  0
107133  1  0  0  0  0
107134  1  0  0  0  0
108135  1  0  0  0  0
108136  1  0  0  0  0
108137  1  0  0  0  0
109110  1  0  0  0  0
109146  1  0  0  0  0
109147  1  0  0  0  0
110148  1  0  0  0  0
110149  1  0  0  0  0
110150  1  0  0  0  0
111141  1  0  0  0  0
111142  1  0  0  0  0
111143  1  0  0  0  0
112138  1  0  0  0  0
112139  1  0  0  0  0
112140  1  0  0  0  0
113114  1  0  0  0  0
113115  1  0  0  0  0
113116  1  0  0  0  0
113117  1  0  0  0  0
113118  1  0  0  0  0
119120  1  0  0  0  0
119121  1  0  0  0  0
119122  1  0  0  0  0
119123  1  0  0  0  0
119124  1  0  0  0  0
125126  1  0  0  0  0
125127  1  0  0  0  0
125128  1  0  0  0  0
125129  1  0  0  0  0
125130  1  0  0  0  0
M  END
