 energy: -207.431608338524 gnorm: 0.000530574987 xtb: 6.7.1 (edcfbbe)
          03202512423D

101112  0     0  0            999 V2000
   -0.2551    3.8658    1.8535 C   0  0  0  0  0  0  0  0  0  0  0  0
    0.3762    2.6324    1.7612 C   0  0  0  0  0  0  0  0  0  0  0  0
    1.6440    2.5449    1.1288 C   0  0  0  0  0  0  0  0  0  0  0  0
    2.2254    3.7676    0.6358 C   0  0  0  0  0  0  0  0  0  0  0  0
    1.4522    4.9511    0.5781 C   0  0  0  0  0  0  0  0  0  0  0  0
    0.2356    4.9840    1.1890 C   0  0  0  0  0  0  0  0  0  0  0  0
    2.4521    1.3625    1.0500 C   0  0  0  0  0  0  0  0  0  0  0  0
    3.8323    1.5815    0.8419 C   0  0  0  0  0  0  0  0  0  0  0  0
    4.3068    2.8556    0.4113 C   0  0  0  0  0  0  0  0  0  0  0  0
    3.4880    3.8867    0.2316 N   0  0  0  0  0  0  0  0  0  0  0  0
    2.0459   -0.0104    1.1953 C   0  0  0  0  0  0  0  0  0  0  0  0
    3.0908   -0.9412    1.5445 C   0  0  0  0  0  0  0  0  0  0  0  0
    4.3903   -0.6519    1.5347 N   0  0  0  0  0  0  0  0  0  0  0  0
    4.7731    0.5369    1.0778 C   0  0  0  0  0  0  0  0  0  0  0  0
    6.1467    0.7767    0.8721 C   0  0  0  0  0  0  0  0  0  0  0  0
    6.5663    2.0038    0.4006 C   0  0  0  0  0  0  0  0  0  0  0  0
    5.6833    3.0305    0.1535 C   0  0  0  0  0  0  0  0  0  0  0  0
    0.7653   -0.5575    0.9071 C   0  0  0  0  0  0  0  0  0  0  0  0
    0.5590   -1.9253    1.0836 C   0  0  0  0  0  0  0  0  0  0  0  0
    1.5283   -2.7632    1.6222 C   0  0  0  0  0  0  0  0  0  0  0  0
    2.7827   -2.2840    1.8634 C   0  0  0  0  0  0  0  0  0  0  0  0
   -0.2624    1.5696    2.2707 O   0  0  0  0  0  0  0  0  0  0  0  0
   -0.2441    0.1493    0.3736 O   0  0  0  0  0  0  0  0  0  0  0  0
   -0.8809    6.4186    0.9658 S   0  0  0  0  0  0  0  0  0  0  0  0
    1.2042   -4.5012    2.1043 S   0  0  0  0  0  0  0  0  0  0  0  0
    8.3634    2.2570    0.1665 S   0  0  0  0  0  0  0  0  0  0  0  0
   -2.2538   -2.1731    2.2379 C   0  0  0  0  0  0  0  0  0  0  0  0
   -2.5438   -1.0415    1.4790 C   0  0  0  0  0  0  0  0  0  0  0  0
   -3.2351   -1.1808    0.2374 C   0  0  0  0  0  0  0  0  0  0  0  0
   -3.3771   -2.5250   -0.2662 C   0  0  0  0  0  0  0  0  0  0  0  0
   -2.9688   -3.6407    0.4997 C   0  0  0  0  0  0  0  0  0  0  0  0
   -2.4708   -3.4553    1.7545 C   0  0  0  0  0  0  0  0  0  0  0  0
   -3.9278   -0.1501   -0.4915 C   0  0  0  0  0  0  0  0  0  0  0  0
   -4.7130   -0.5776   -1.5864 C   0  0  0  0  0  0  0  0  0  0  0  0
   -4.5693   -1.8945   -2.1131 C   0  0  0  0  0  0  0  0  0  0  0  0
   -3.9055   -2.8332   -1.4520 N   0  0  0  0  0  0  0  0  0  0  0  0
   -4.0932    1.2346   -0.1300 C   0  0  0  0  0  0  0  0  0  0  0  0
   -5.3463    1.8344   -0.5232 C   0  0  0  0  0  0  0  0  0  0  0  0
   -6.0978    1.3771   -1.5198 N   0  0  0  0  0  0  0  0  0  0  0  0
   -5.7062    0.2756   -2.1534 C   0  0  0  0  0  0  0  0  0  0  0  0
   -6.3588   -0.1108   -3.3406 C   0  0  0  0  0  0  0  0  0  0  0  0
   -6.0729   -1.3309   -3.9146 C   0  0  0  0  0  0  0  0  0  0  0  0
   -5.2127   -2.2317   -3.3241 C   0  0  0  0  0  0  0  0  0  0  0  0
   -3.1613    2.0962    0.5120 C   0  0  0  0  0  0  0  0  0  0  0  0
   -3.6383    3.2631    1.1015 C   0  0  0  0  0  0  0  0  0  0  0  0
   -4.9600    3.6733    0.9574 C   0  0  0  0  0  0  0  0  0  0  0  0
   -5.8005    3.0141    0.1122 C   0  0  0  0  0  0  0  0  0  0  0  0
   -2.1298    0.1185    1.9953 O   0  0  0  0  0  0  0  0  0  0  0  0
   -1.8391    1.9053    0.4560 O   0  0  0  0  0  0  0  0  0  0  0  0
   -1.9218   -4.9076    2.6980 S   0  0  0  0  0  0  0  0  0  0  0  0
   -5.5214    5.1271    1.9159 S   0  0  0  0  0  0  0  0  0  0  0  0
   -6.9247   -1.8482   -5.4492 S   0  0  0  0  0  0  0  0  0  0  0  0
   -1.1397    0.9187    1.2653 B   0  0  0  0  0  0  0  0  0  0  0  0
    8.4720    3.5528   -0.4781 O   0  0  0  0  0  0  0  0  0  0  0  0
    8.7238    2.4662    1.7935 O   0  0  0  0  0  0  0  0  0  0  0  0
    8.2672    3.6580    2.3764 C   0  0  0  0  0  0  0  0  0  0  0  0
   -0.1363   -4.7784    1.1022 O   0  0  0  0  0  0  0  0  0  0  0  0
    0.1281   -5.1142   -0.2365 C   0  0  0  0  0  0  0  0  0  0  0  0
    2.3152   -5.2175    1.4916 O   0  0  0  0  0  0  0  0  0  0  0  0
   -0.9560   -4.3749    3.6490 O   0  0  0  0  0  0  0  0  0  0  0  0
   -3.3582   -5.1159    3.5571 O   0  0  0  0  0  0  0  0  0  0  0  0
   -3.6506   -4.1619    4.5425 C   0  0  0  0  0  0  0  0  0  0  0  0
   -7.7018   -0.6885   -5.8468 O   0  0  0  0  0  0  0  0  0  0  0  0
   -7.9707   -2.9377   -4.7154 O   0  0  0  0  0  0  0  0  0  0  0  0
   -8.9682   -2.3782   -3.9024 C   0  0  0  0  0  0  0  0  0  0  0  0
   -6.8905    5.3414    1.4745 O   0  0  0  0  0  0  0  0  0  0  0  0
   -4.5592    6.2792    1.1917 O   0  0  0  0  0  0  0  0  0  0  0  0
   -4.8681    6.5914   -0.1411 C   0  0  0  0  0  0  0  0  0  0  0  0
   -0.0846    7.3624    0.2001 O   0  0  0  0  0  0  0  0  0  0  0  0
   -1.9148    5.6293   -0.0750 O   0  0  0  0  0  0  0  0  0  0  0  0
   -1.3814    5.0743   -1.2499 C   0  0  0  0  0  0  0  0  0  0  0  0
   -9.7965   -3.0849   -3.8657 H   0  0  0  0  0  0  0  0  0  0  0  0
   -9.3145   -1.4328   -4.3338 H   0  0  0  0  0  0  0  0  0  0  0  0
   -8.5903   -2.1971   -2.8910 H   0  0  0  0  0  0  0  0  0  0  0  0
   -4.4323    7.5659   -0.3542 H   0  0  0  0  0  0  0  0  0  0  0  0
   -5.9550    6.6325   -0.2718 H   0  0  0  0  0  0  0  0  0  0  0  0
   -4.4479    5.8433   -0.8180 H   0  0  0  0  0  0  0  0  0  0  0  0
   -2.1672    5.0883   -2.0064 H   0  0  0  0  0  0  0  0  0  0  0  0
   -1.0620    4.0426   -1.0758 H   0  0  0  0  0  0  0  0  0  0  0  0
   -0.5347    5.6727   -1.6011 H   0  0  0  0  0  0  0  0  0  0  0  0
   -4.2743   -4.6427    5.2966 H   0  0  0  0  0  0  0  0  0  0  0  0
   -4.1841   -3.3074    4.1134 H   0  0  0  0  0  0  0  0  0  0  0  0
   -2.7219   -3.8143    5.0055 H   0  0  0  0  0  0  0  0  0  0  0  0
   -0.5455   -5.9201   -0.5287 H   0  0  0  0  0  0  0  0  0  0  0  0
    1.1653   -5.4570   -0.3208 H   0  0  0  0  0  0  0  0  0  0  0  0
   -0.0265   -4.2487   -0.8857 H   0  0  0  0  0  0  0  0  0  0  0  0
    8.9169    3.8800    3.2223 H   0  0  0  0  0  0  0  0  0  0  0  0
    7.2335    3.5525    2.7212 H   0  0  0  0  0  0  0  0  0  0  0  0
    8.3241    4.4749    1.6491 H   0  0  0  0  0  0  0  0  0  0  0  0
   -7.0831    0.5503   -3.7898 H   0  0  0  0  0  0  0  0  0  0  0  0
   -5.0557   -3.2137   -3.7404 H   0  0  0  0  0  0  0  0  0  0  0  0
   -6.7849    3.3893   -0.1161 H   0  0  0  0  0  0  0  0  0  0  0  0
   -3.0937   -4.6222    0.0733 H   0  0  0  0  0  0  0  0  0  0  0  0
   -2.9580    3.8978    1.6403 H   0  0  0  0  0  0  0  0  0  0  0  0
   -1.7550   -2.0327    3.1850 H   0  0  0  0  0  0  0  0  0  0  0  0
   -1.1791    3.9146    2.4045 H   0  0  0  0  0  0  0  0  0  0  0  0
   -0.3920   -2.3287    0.7852 H   0  0  0  0  0  0  0  0  0  0  0  0
    3.5802   -2.9264    2.1986 H   0  0  0  0  0  0  0  0  0  0  0  0
    1.8605    5.8220    0.0907 H   0  0  0  0  0  0  0  0  0  0  0  0
    6.0340    3.9793   -0.2212 H   0  0  0  0  0  0  0  0  0  0  0  0
    6.8490   -0.0126    1.0867 H   0  0  0  0  0  0  0  0  0  0  0  0
  1  2  2  0  0  0  0
  1 96  1  0  0  0  0
  2  3  1  0  0  0  0
  3  4  2  0  0  0  0
  3  7  1  0  0  0  0
  4  5  1  0  0  0  0
  5  6  2  0  0  0  0
  5 99  1  0  0  0  0
  6  1  1  0  0  0  0
  6 24  1  0  0  0  0
  7  8  1  0  0  0  0
  7 11  2  0  0  0  0
  8  9  1  0  0  0  0
  9 10  2  0  0  0  0
 10  4  1  0  0  0  0
 11 12  1  0  0  0  0
 11 18  1  0  0  0  0
 12 13  2  0  0  0  0
 13 14  1  0  0  0  0
 14  8  1  0  0  0  0
 14 15  2  0  0  0  0
 15 16  1  0  0  0  0
 15101  1  0  0  0  0
 16 17  2  0  0  0  0
 16 26  1  0  0  0  0
 17  9  1  0  0  0  0
 17100  1  0  0  0  0
 18 19  2  0  0  0  0
 19 20  1  0  0  0  0
 19 97  1  0  0  0  0
 20 21  2  0  0  0  0
 20 25  1  0  0  0  0
 21 12  1  0  0  0  0
 21 98  1  0  0  0  0
 22  2  1  0  0  0  0
 23 18  1  0  0  0  0
 24 69  2  0  0  0  0
 24 70  1  0  0  0  0
 25 57  1  0  0  0  0
 25 59  2  0  0  0  0
 26 54  2  0  0  0  0
 26 55  1  0  0  0  0
 27 28  2  0  0  0  0
 27 95  1  0  0  0  0
 28 29  1  0  0  0  0
 28 48  1  0  0  0  0
 29 30  2  0  0  0  0
 29 33  1  0  0  0  0
 30 31  1  0  0  0  0
 31 32  2  0  0  0  0
 31 93  1  0  0  0  0
 32 27  1  0  0  0  0
 32 50  1  0  0  0  0
 33 37  2  0  0  0  0
 34 33  1  0  0  0  0
 34 35  1  0  0  0  0
 35 36  2  0  0  0  0
 36 30  1  0  0  0  0
 37 38  1  0  0  0  0
 37 44  1  0  0  0  0
 38 39  2  0  0  0  0
 39 40  1  0  0  0  0
 40 34  1  0  0  0  0
 40 41  2  0  0  0  0
 41 42  1  0  0  0  0
 41 90  1  0  0  0  0
 42 43  2  0  0  0  0
 42 52  1  0  0  0  0
 43 35  1  0  0  0  0
 43 91  1  0  0  0  0
 44 45  2  0  0  0  0
 44 49  1  0  0  0  0
 45 46  1  0  0  0  0
 45 94  1  0  0  0  0
 46 47  2  0  0  0  0
 46 51  1  0  0  0  0
 47 38  1  0  0  0  0
 47 92  1  0  0  0  0
 50 60  2  0  0  0  0
 50 61  1  0  0  0  0
 51 66  2  0  0  0  0
 51 67  1  0  0  0  0
 52 63  2  0  0  0  0
 52 64  1  0  0  0  0
 53 49  1  0  0  0  0
 53 22  1  0  0  0  0
 53 48  1  0  0  0  0
 53 23  1  0  0  0  0
 55 56  1  0  0  0  0
 56 87  1  0  0  0  0
 56 88  1  0  0  0  0
 56 89  1  0  0  0  0
 57 58  1  0  0  0  0
 58 84  1  0  0  0  0
 58 85  1  0  0  0  0
 58 86  1  0  0  0  0
 61 62  1  0  0  0  0
 62 81  1  0  0  0  0
 62 82  1  0  0  0  0
 62 83  1  0  0  0  0
 64 65  1  0  0  0  0
 65 72  1  0  0  0  0
 65 73  1  0  0  0  0
 65 74  1  0  0  0  0
 67 68  1  0  0  0  0
 68 75  1  0  0  0  0
 68 76  1  0  0  0  0
 68 77  1  0  0  0  0
 70 71  1  0  0  0  0
 71 78  1  0  0  0  0
 71 79  1  0  0  0  0
 71 80  1  0  0  0  0
M  CHG  1   1  -1
M  END
