 energy: -207.101511928962 gnorm: 0.000191310836 xtb: 6.7.1 (edcfbbe)
          03202512333D

101112  0     0  0            999 V2000
   -0.3203    3.9032    1.7008 C   0  0  0  0  0  0  0  0  0  0  0  0
    0.2865    2.6534    1.6575 C   0  0  0  0  0  0  0  0  0  0  0  0
    1.5980    2.5307    1.1368 C   0  0  0  0  0  0  0  0  0  0  0  0
    2.2447    3.7415    0.6893 C   0  0  0  0  0  0  0  0  0  0  0  0
    1.5020    4.9424    0.5564 C   0  0  0  0  0  0  0  0  0  0  0  0
    0.2444    5.0111    1.0754 C   0  0  0  0  0  0  0  0  0  0  0  0
    2.3844    1.3322    1.1658 C   0  0  0  0  0  0  0  0  0  0  0  0
    3.7825    1.5352    1.1074 C   0  0  0  0  0  0  0  0  0  0  0  0
    4.3192    2.7946    0.7098 C   0  0  0  0  0  0  0  0  0  0  0  0
    3.5416    3.8344    0.4285 N   0  0  0  0  0  0  0  0  0  0  0  0
    1.9523   -0.0402    1.2588 C   0  0  0  0  0  0  0  0  0  0  0  0
    2.9532   -0.9842    1.7023 C   0  0  0  0  0  0  0  0  0  0  0  0
    4.2385   -0.6972    1.8624 N   0  0  0  0  0  0  0  0  0  0  0  0
    4.6820    0.4896    1.4596 C   0  0  0  0  0  0  0  0  0  0  0  0
    6.0741    0.7128    1.4123 C   0  0  0  0  0  0  0  0  0  0  0  0
    6.5632    1.9182    0.9513 C   0  0  0  0  0  0  0  0  0  0  0  0
    5.7177    2.9434    0.5871 C   0  0  0  0  0  0  0  0  0  0  0  0
    0.7257   -0.5889    0.7945 C   0  0  0  0  0  0  0  0  0  0  0  0
    0.5721   -1.9827    0.7619 C   0  0  0  0  0  0  0  0  0  0  0  0
    1.4861   -2.8520    1.3409 C   0  0  0  0  0  0  0  0  0  0  0  0
    2.6446   -2.3582    1.8659 C   0  0  0  0  0  0  0  0  0  0  0  0
   -0.3993    1.6071    2.1253 O   0  0  0  0  0  0  0  0  0  0  0  0
   -0.2706    0.1223    0.2624 O   0  0  0  0  0  0  0  0  0  0  0  0
   -0.8403    6.4640    0.7393 S   0  0  0  0  0  0  0  0  0  0  0  0
    1.3518   -4.6843    1.3529 S   0  0  0  0  0  0  0  0  0  0  0  0
    8.3945    2.1727    0.8747 S   0  0  0  0  0  0  0  0  0  0  0  0
   -2.0517   -2.1664    2.0658 C   0  0  0  0  0  0  0  0  0  0  0  0
   -2.5410   -1.0646    1.3677 C   0  0  0  0  0  0  0  0  0  0  0  0
   -3.3576   -1.2485    0.2171 C   0  0  0  0  0  0  0  0  0  0  0  0
   -3.5280   -2.6120   -0.2288 C   0  0  0  0  0  0  0  0  0  0  0  0
   -2.9748   -3.6979    0.4932 C   0  0  0  0  0  0  0  0  0  0  0  0
   -2.2764   -3.4685    1.6397 C   0  0  0  0  0  0  0  0  0  0  0  0
   -4.1198   -0.2361   -0.4657 C   0  0  0  0  0  0  0  0  0  0  0  0
   -5.0244   -0.7080   -1.4462 C   0  0  0  0  0  0  0  0  0  0  0  0
   -4.9589   -2.0510   -1.9182 C   0  0  0  0  0  0  0  0  0  0  0  0
   -4.2124   -2.9638   -1.3134 N   0  0  0  0  0  0  0  0  0  0  0  0
   -4.2040    1.1799   -0.1883 C   0  0  0  0  0  0  0  0  0  0  0  0
   -5.4800    1.7928   -0.5035 C   0  0  0  0  0  0  0  0  0  0  0  0
   -6.3446    1.2854   -1.3682 N   0  0  0  0  0  0  0  0  0  0  0  0
   -6.0573    0.1299   -1.9582 C   0  0  0  0  0  0  0  0  0  0  0  0
   -6.8521   -0.3103   -3.0346 C   0  0  0  0  0  0  0  0  0  0  0  0
   -6.6555   -1.5656   -3.5734 C   0  0  0  0  0  0  0  0  0  0  0  0
   -5.7442   -2.4429   -3.0273 C   0  0  0  0  0  0  0  0  0  0  0  0
   -3.1888    2.0726    0.2551 C   0  0  0  0  0  0  0  0  0  0  0  0
   -3.5603    3.3517    0.6745 C   0  0  0  0  0  0  0  0  0  0  0  0
   -4.8732    3.8071    0.6394 C   0  0  0  0  0  0  0  0  0  0  0  0
   -5.8327    3.0594    0.0276 C   0  0  0  0  0  0  0  0  0  0  0  0
   -2.1906    0.1311    1.8401 O   0  0  0  0  0  0  0  0  0  0  0  0
   -1.8816    1.8168    0.1918 O   0  0  0  0  0  0  0  0  0  0  0  0
   -1.4853   -4.8624    2.5133 S   0  0  0  0  0  0  0  0  0  0  0  0
   -5.2872    5.4123    1.4492 S   0  0  0  0  0  0  0  0  0  0  0  0
   -7.6947   -2.1254   -4.9971 S   0  0  0  0  0  0  0  0  0  0  0  0
   -1.1968    0.9111    1.1035 B   0  0  0  0  0  0  0  0  0  0  0  0
    8.5306    3.4484    0.2074 O   0  0  0  0  0  0  0  0  0  0  0  0
    8.5844    2.4238    2.5132 O   0  0  0  0  0  0  0  0  0  0  0  0
    8.2200    3.6870    3.0093 C   0  0  0  0  0  0  0  0  0  0  0  0
   -0.1618   -4.8209    0.5803 O   0  0  0  0  0  0  0  0  0  0  0  0
   -0.1734   -5.2179   -0.7692 C   0  0  0  0  0  0  0  0  0  0  0  0
    2.3233   -5.0430    0.3316 O   0  0  0  0  0  0  0  0  0  0  0  0
   -0.2954   -4.2498    3.1018 O   0  0  0  0  0  0  0  0  0  0  0  0
   -2.5996   -4.9830    3.7429 O   0  0  0  0  0  0  0  0  0  0  0  0
   -2.5817   -4.0271    4.7744 C   0  0  0  0  0  0  0  0  0  0  0  0
   -8.4730   -0.9522   -5.3287 O   0  0  0  0  0  0  0  0  0  0  0  0
   -8.6591   -3.1516   -4.1027 O   0  0  0  0  0  0  0  0  0  0  0  0
   -9.6650   -2.5574   -3.3216 C   0  0  0  0  0  0  0  0  0  0  0  0
   -6.6013    5.7279    0.9284 O   0  0  0  0  0  0  0  0  0  0  0  0
   -4.1648    6.3579    0.6662 O   0  0  0  0  0  0  0  0  0  0  0  0
   -4.4659    6.7239   -0.6577 C   0  0  0  0  0  0  0  0  0  0  0  0
    0.0663    7.4699    0.2297 O   0  0  0  0  0  0  0  0  0  0  0  0
   -1.5685    5.7211   -0.5712 O   0  0  0  0  0  0  0  0  0  0  0  0
   -0.8124    5.6117   -1.7478 C   0  0  0  0  0  0  0  0  0  0  0  0
  -10.4908   -3.2640   -3.2552 H   0  0  0  0  0  0  0  0  0  0  0  0
  -10.0123   -1.6354   -3.7996 H   0  0  0  0  0  0  0  0  0  0  0  0
   -9.2898   -2.3287   -2.3194 H   0  0  0  0  0  0  0  0  0  0  0  0
   -3.9651    7.6695   -0.8566 H   0  0  0  0  0  0  0  0  0  0  0  0
   -5.5479    6.8473   -0.7722 H   0  0  0  0  0  0  0  0  0  0  0  0
   -4.1090    5.9602   -1.3531 H   0  0  0  0  0  0  0  0  0  0  0  0
   -1.5001    5.6651   -2.5916 H   0  0  0  0  0  0  0  0  0  0  0  0
   -0.2737    4.6595   -1.7715 H   0  0  0  0  0  0  0  0  0  0  0  0
   -0.0986    6.4398   -1.8107 H   0  0  0  0  0  0  0  0  0  0  0  0
   -2.9493   -4.5123    5.6783 H   0  0  0  0  0  0  0  0  0  0  0  0
   -3.2238   -3.1768    4.5252 H   0  0  0  0  0  0  0  0  0  0  0  0
   -1.5572   -3.6798    4.9367 H   0  0  0  0  0  0  0  0  0  0  0  0
   -0.7149   -6.1605   -0.8647 H   0  0  0  0  0  0  0  0  0  0  0  0
    0.8597   -5.3544   -1.1077 H   0  0  0  0  0  0  0  0  0  0  0  0
   -0.6583   -4.4478   -1.3730 H   0  0  0  0  0  0  0  0  0  0  0  0
    8.8506    3.8960    3.8720 H   0  0  0  0  0  0  0  0  0  0  0  0
    7.1672    3.6949    3.3081 H   0  0  0  0  0  0  0  0  0  0  0  0
    8.3861    4.4509    2.2426 H   0  0  0  0  0  0  0  0  0  0  0  0
   -7.6143    0.3418   -3.4339 H   0  0  0  0  0  0  0  0  0  0  0  0
   -5.6326   -3.4467   -3.4055 H   0  0  0  0  0  0  0  0  0  0  0  0
   -6.8301    3.4354   -0.1344 H   0  0  0  0  0  0  0  0  0  0  0  0
   -3.1439   -4.6916    0.1133 H   0  0  0  0  0  0  0  0  0  0  0  0
   -2.7875    4.0277    0.9947 H   0  0  0  0  0  0  0  0  0  0  0  0
   -1.4277   -1.9791    2.9264 H   0  0  0  0  0  0  0  0  0  0  0  0
   -1.2714    3.9770    2.2019 H   0  0  0  0  0  0  0  0  0  0  0  0
   -0.3029   -2.3696    0.2664 H   0  0  0  0  0  0  0  0  0  0  0  0
    3.4076   -3.0026    2.2708 H   0  0  0  0  0  0  0  0  0  0  0  0
    1.9754    5.8023    0.1097 H   0  0  0  0  0  0  0  0  0  0  0  0
    6.1180    3.8741    0.2133 H   0  0  0  0  0  0  0  0  0  0  0  0
    6.7334   -0.0795    1.7293 H   0  0  0  0  0  0  0  0  0  0  0  0
  1  2  2  0  0  0  0
  1 96  1  0  0  0  0
  2  3  1  0  0  0  0
  3  4  2  0  0  0  0
  3  7  1  0  0  0  0
  4  5  1  0  0  0  0
  5  6  2  0  0  0  0
  5 99  1  0  0  0  0
  6  1  1  0  0  0  0
  6 24  1  0  0  0  0
  7  8  1  0  0  0  0
  7 11  2  0  0  0  0
  8  9  1  0  0  0  0
  9 10  2  0  0  0  0
 10  4  1  0  0  0  0
 11 12  1  0  0  0  0
 11 18  1  0  0  0  0
 12 13  2  0  0  0  0
 13 14  1  0  0  0  0
 14  8  1  0  0  0  0
 14 15  2  0  0  0  0
 15 16  1  0  0  0  0
 15101  1  0  0  0  0
 16 17  2  0  0  0  0
 16 26  1  0  0  0  0
 17  9  1  0  0  0  0
 17100  1  0  0  0  0
 18 19  2  0  0  0  0
 19 20  1  0  0  0  0
 19 97  1  0  0  0  0
 20 21  2  0  0  0  0
 20 25  1  0  0  0  0
 21 12  1  0  0  0  0
 21 98  1  0  0  0  0
 22  2  1  0  0  0  0
 23 18  1  0  0  0  0
 24 69  2  0  0  0  0
 24 70  1  0  0  0  0
 25 57  1  0  0  0  0
 25 59  2  0  0  0  0
 26 54  2  0  0  0  0
 26 55  1  0  0  0  0
 27 28  2  0  0  0  0
 27 95  1  0  0  0  0
 28 29  1  0  0  0  0
 28 48  1  0  0  0  0
 29 30  2  0  0  0  0
 29 33  1  0  0  0  0
 30 31  1  0  0  0  0
 31 32  2  0  0  0  0
 31 93  1  0  0  0  0
 32 27  1  0  0  0  0
 32 50  1  0  0  0  0
 33 37  2  0  0  0  0
 34 33  1  0  0  0  0
 34 35  1  0  0  0  0
 35 36  2  0  0  0  0
 36 30  1  0  0  0  0
 37 38  1  0  0  0  0
 37 44  1  0  0  0  0
 38 39  2  0  0  0  0
 39 40  1  0  0  0  0
 40 34  1  0  0  0  0
 40 41  2  0  0  0  0
 41 42  1  0  0  0  0
 41 90  1  0  0  0  0
 42 43  2  0  0  0  0
 42 52  1  0  0  0  0
 43 35  1  0  0  0  0
 43 91  1  0  0  0  0
 44 45  2  0  0  0  0
 44 49  1  0  0  0  0
 45 46  1  0  0  0  0
 45 94  1  0  0  0  0
 46 47  2  0  0  0  0
 46 51  1  0  0  0  0
 47 38  1  0  0  0  0
 47 92  1  0  0  0  0
 50 60  2  0  0  0  0
 50 61  1  0  0  0  0
 51 66  2  0  0  0  0
 51 67  1  0  0  0  0
 52 63  2  0  0  0  0
 52 64  1  0  0  0  0
 53 49  1  0  0  0  0
 53 22  1  0  0  0  0
 53 48  1  0  0  0  0
 53 23  1  0  0  0  0
 55 56  1  0  0  0  0
 56 87  1  0  0  0  0
 56 88  1  0  0  0  0
 56 89  1  0  0  0  0
 57 58  1  0  0  0  0
 58 84  1  0  0  0  0
 58 85  1  0  0  0  0
 58 86  1  0  0  0  0
 61 62  1  0  0  0  0
 62 81  1  0  0  0  0
 62 82  1  0  0  0  0
 62 83  1  0  0  0  0
 64 65  1  0  0  0  0
 65 72  1  0  0  0  0
 65 73  1  0  0  0  0
 65 74  1  0  0  0  0
 67 68  1  0  0  0  0
 68 75  1  0  0  0  0
 68 76  1  0  0  0  0
 68 77  1  0  0  0  0
 70 71  1  0  0  0  0
 71 78  1  0  0  0  0
 71 79  1  0  0  0  0
 71 80  1  0  0  0  0
M  CHG  1   8   1
M  CHG  1  53  -1
M  END
