 energy: -39.531872691620 gnorm: 0.000909559434 xtb: 6.7.1 (edcfbbe)
          03202513123D

202224  0     0  0            999 V2000
   -1.0390    4.1069    1.2531 C   0  0  0  0  0  0  0  0  0  0  0  0
   -0.2767    3.4018    2.1741 C   0  0  0  0  0  0  0  0  0  0  0  0
    1.1478    3.3930    2.0192 C   0  0  0  0  0  0  0  0  0  0  0  0
    1.7281    4.3634    1.1489 C   0  0  0  0  0  0  0  0  0  0  0  0
    0.8973    5.0391    0.2330 C   0  0  0  0  0  0  0  0  0  0  0  0
   -0.4634    4.8890    0.2731 C   0  0  0  0  0  0  0  0  0  0  0  0
    2.0135    2.5848    2.8264 C   0  0  0  0  0  0  0  0  0  0  0  0
    3.3121    3.0851    2.9947 C   0  0  0  0  0  0  0  0  0  0  0  0
    3.7615    4.1868    2.2070 C   0  0  0  0  0  0  0  0  0  0  0  0
    3.0194    4.7458    1.2347 N   0  0  0  0  0  0  0  0  0  0  0  0
    1.7264    1.3097    3.4210 C   0  0  0  0  0  0  0  0  0  0  0  0
    2.7056    0.7745    4.3142 C   0  0  0  0  0  0  0  0  0  0  0  0
    3.8363    1.4214    4.6778 N   0  0  0  0  0  0  0  0  0  0  0  0
    4.1764    2.5103    3.9700 C   0  0  0  0  0  0  0  0  0  0  0  0
    5.4393    3.0807    4.1710 C   0  0  0  0  0  0  0  0  0  0  0  0
    5.8637    4.1418    3.4039 C   0  0  0  0  0  0  0  0  0  0  0  0
    5.0497    4.6820    2.4363 C   0  0  0  0  0  0  0  0  0  0  0  0
    0.6561    0.4404    2.9961 C   0  0  0  0  0  0  0  0  0  0  0  0
    0.6980   -0.8964    3.3705 C   0  0  0  0  0  0  0  0  0  0  0  0
    1.6191   -1.3785    4.2746 C   0  0  0  0  0  0  0  0  0  0  0  0
    2.5832   -0.5508    4.7689 C   0  0  0  0  0  0  0  0  0  0  0  0
   -0.8866    2.8045    3.2642 O   0  0  0  0  0  0  0  0  0  0  0  0
   -0.4223    0.7927    2.2015 O   0  0  0  0  0  0  0  0  0  0  0  0
   -1.5296    5.7429   -0.9180 S   0  0  0  0  0  0  0  0  0  0  0  0
    1.5483   -3.1250    4.7672 S   0  0  0  0  0  0  0  0  0  0  0  0
    7.5052    4.8597    3.6681 S   0  0  0  0  0  0  0  0  0  0  0  0
   -1.9570   -1.4832    4.1588 C   0  0  0  0  0  0  0  0  0  0  0  0
   -2.6845   -0.4482    3.5768 C   0  0  0  0  0  0  0  0  0  0  0  0
   -3.8028   -0.7749    2.7180 C   0  0  0  0  0  0  0  0  0  0  0  0
   -4.0023   -2.1527    2.3978 C   0  0  0  0  0  0  0  0  0  0  0  0
   -3.0965   -3.1171    2.8727 C   0  0  0  0  0  0  0  0  0  0  0  0
   -2.1077   -2.7952    3.7551 C   0  0  0  0  0  0  0  0  0  0  0  0
   -4.8505    0.1337    2.3338 C   0  0  0  0  0  0  0  0  0  0  0  0
   -6.0438   -0.4207    1.8560 C   0  0  0  0  0  0  0  0  0  0  0  0
   -6.0907   -1.7971    1.4984 C   0  0  0  0  0  0  0  0  0  0  0  0
   -5.0652   -2.6343    1.7153 N   0  0  0  0  0  0  0  0  0  0  0  0
   -4.8859    1.5511    2.5218 C   0  0  0  0  0  0  0  0  0  0  0  0
   -6.1441    2.2111    2.6261 C   0  0  0  0  0  0  0  0  0  0  0  0
   -7.2998    1.6399    2.2310 N   0  0  0  0  0  0  0  0  0  0  0  0
   -7.2221    0.3837    1.7512 C   0  0  0  0  0  0  0  0  0  0  0  0
   -8.3753   -0.1993    1.2108 C   0  0  0  0  0  0  0  0  0  0  0  0
   -8.3866   -1.5148    0.8040 C   0  0  0  0  0  0  0  0  0  0  0  0
   -7.2715   -2.3063    0.9482 C   0  0  0  0  0  0  0  0  0  0  0  0
   -3.7031    2.3579    2.5277 C   0  0  0  0  0  0  0  0  0  0  0  0
   -3.7701    3.6281    3.0936 C   0  0  0  0  0  0  0  0  0  0  0  0
   -4.9964    4.2016    3.3870 C   0  0  0  0  0  0  0  0  0  0  0  0
   -6.1606    3.5358    3.1013 C   0  0  0  0  0  0  0  0  0  0  0  0
   -2.2090    0.8154    3.8873 O   0  0  0  0  0  0  0  0  0  0  0  0
   -2.5782    1.8804    1.8829 O   0  0  0  0  0  0  0  0  0  0  0  0
   -0.9845   -4.0910    4.3711 S   0  0  0  0  0  0  0  0  0  0  0  0
   -5.0819    5.8689    4.0841 S   0  0  0  0  0  0  0  0  0  0  0  0
   -9.9052   -2.2104    0.1128 S   0  0  0  0  0  0  0  0  0  0  0  0
   -1.5167    1.5675    2.8224 B   0  0  0  0  0  0  0  0  0  0  0  0
    7.3145    6.1431    2.8933 O   0  0  0  0  0  0  0  0  0  0  0  0
    7.2488    5.4020    5.2361 O   0  0  0  0  0  0  0  0  0  0  0  0
    6.2273    6.3371    5.3054 C   0  0  0  0  0  0  0  0  0  0  0  0
    1.5157   -3.7467    3.1975 O   0  0  0  0  0  0  0  0  0  0  0  0
    2.7288   -3.5973    2.5376 C   0  0  0  0  0  0  0  0  0  0  0  0
    3.0145   -3.3005    5.1306 O   0  0  0  0  0  0  0  0  0  0  0  0
   -1.1219   -3.7934    5.8528 O   0  0  0  0  0  0  0  0  0  0  0  0
   -2.0782   -5.3627    4.1575 O   0  0  0  0  0  0  0  0  0  0  0  0
   -3.0593   -5.3780    5.1316 C   0  0  0  0  0  0  0  0  0  0  0  0
  -10.8321   -1.7916    1.2348 O   0  0  0  0  0  0  0  0  0  0  0  0
   -9.5668   -3.8120    0.5185 O   0  0  0  0  0  0  0  0  0  0  0  0
   -9.9779   -4.1340    1.8034 C   0  0  0  0  0  0  0  0  0  0  0  0
   -6.1079    6.4380    3.1307 O   0  0  0  0  0  0  0  0  0  0  0  0
   -3.6458    6.4186    3.4051 O   0  0  0  0  0  0  0  0  0  0  0  0
   -3.7779    6.7296    2.0575 C   0  0  0  0  0  0  0  0  0  0  0  0
   -1.2387    4.8756   -2.1275 O   0  0  0  0  0  0  0  0  0  0  0  0
   -2.9825    5.0831   -0.3655 O   0  0  0  0  0  0  0  0  0  0  0  0
   -3.2676    3.8558   -0.9540 C   0  0  0  0  0  0  0  0  0  0  0  0
   -9.8059   -5.1989    1.9816 H   0  0  0  0  0  0  0  0  0  0  0  0
  -11.0427   -3.8991    1.9019 H   0  0  0  0  0  0  0  0  0  0  0  0
   -9.4065   -3.5368    2.5167 H   0  0  0  0  0  0  0  0  0  0  0  0
   -2.8664    7.2267    1.7156 H   0  0  0  0  0  0  0  0  0  0  0  0
   -4.6364    7.3984    1.9354 H   0  0  0  0  0  0  0  0  0  0  0  0
   -3.9362    5.8137    1.4814 H   0  0  0  0  0  0  0  0  0  0  0  0
   -4.1929    3.4586   -0.5269 H   0  0  0  0  0  0  0  0  0  0  0  0
   -2.4425    3.1598   -0.7740 H   0  0  0  0  0  0  0  0  0  0  0  0
   -3.3815    4.0071   -2.0318 H   0  0  0  0  0  0  0  0  0  0  0  0
   -2.5865   -5.6337    6.0837 H   0  0  0  0  0  0  0  0  0  0  0  0
   -3.8169   -6.1223    4.8720 H   0  0  0  0  0  0  0  0  0  0  0  0
   -3.5045   -4.3810    5.1894 H   0  0  0  0  0  0  0  0  0  0  0  0
    3.5166   -4.0481    3.1492 H   0  0  0  0  0  0  0  0  0  0  0  0
    2.9389   -2.5352    2.3874 H   0  0  0  0  0  0  0  0  0  0  0  0
    2.6704   -4.1039    1.5704 H   0  0  0  0  0  0  0  0  0  0  0  0
    6.2179    6.7784    6.3058 H   0  0  0  0  0  0  0  0  0  0  0  0
    5.2753    5.8341    5.1136 H   0  0  0  0  0  0  0  0  0  0  0  0
    6.4064    7.1139    4.5540 H   0  0  0  0  0  0  0  0  0  0  0  0
   -9.2777    0.3837    1.1536 H   0  0  0  0  0  0  0  0  0  0  0  0
   -7.3209   -3.3483    0.6866 H   0  0  0  0  0  0  0  0  0  0  0  0
   -7.1043    4.0385    3.2210 H   0  0  0  0  0  0  0  0  0  0  0  0
   -3.2523   -4.1475    2.6060 H   0  0  0  0  0  0  0  0  0  0  0  0
   -2.8679    4.1914    3.2482 H   0  0  0  0  0  0  0  0  0  0  0  0
   -1.2231   -1.2274    4.9042 H   0  0  0  0  0  0  0  0  0  0  0  0
   -2.1077    4.0406    1.3074 H   0  0  0  0  0  0  0  0  0  0  0  0
   -0.0114   -1.5708    2.9273 H   0  0  0  0  0  0  0  0  0  0  0  0
    3.3304   -0.9504    5.4321 H   0  0  0  0  0  0  0  0  0  0  0  0
    1.3452    5.6992   -0.4885 H   0  0  0  0  0  0  0  0  0  0  0  0
    5.3979    5.5285    1.8699 H   0  0  0  0  0  0  0  0  0  0  0  0
    6.0805    2.6731    4.9324 H   0  0  0  0  0  0  0  0  0  0  0  0
    1.3701    3.4638    7.3703 C   0  0  0  0  0  0  0  0  0  0  0  0
    1.4457    2.2209    7.9937 C   0  0  0  0  0  0  0  0  0  0  0  0
    2.7375    1.6661    8.3120 C   0  0  0  0  0  0  0  0  0  0  0  0
    3.8653    2.5343    8.1407 C   0  0  0  0  0  0  0  0  0  0  0  0
    3.7184    3.7651    7.4747 C   0  0  0  0  0  0  0  0  0  0  0  0
    2.4884    4.2341    7.1261 C   0  0  0  0  0  0  0  0  0  0  0  0
    2.9676    0.3891    8.9540 C   0  0  0  0  0  0  0  0  0  0  0  0
    4.1682    0.3060    9.6907 C   0  0  0  0  0  0  0  0  0  0  0  0
    5.1650    1.3206    9.5803 C   0  0  0  0  0  0  0  0  0  0  0  0
    5.0678    2.3405    8.7184 N   0  0  0  0  0  0  0  0  0  0  0  0
    2.2006   -0.8340    8.8837 C   0  0  0  0  0  0  0  0  0  0  0  0
    2.6233   -1.9252    9.7101 C   0  0  0  0  0  0  0  0  0  0  0  0
    3.6183   -1.8640   10.6175 N   0  0  0  0  0  0  0  0  0  0  0  0
    4.4173   -0.7932   10.5648 C   0  0  0  0  0  0  0  0  0  0  0  0
    5.5668   -0.7920   11.3667 C   0  0  0  0  0  0  0  0  0  0  0  0
    6.4963    0.2153   11.2700 C   0  0  0  0  0  0  0  0  0  0  0  0
    6.3115    1.2453   10.3811 C   0  0  0  0  0  0  0  0  0  0  0  0
    1.1706   -1.1263    7.9185 C   0  0  0  0  0  0  0  0  0  0  0  0
    0.7261   -2.4339    7.7565 C   0  0  0  0  0  0  0  0  0  0  0  0
    1.1524   -3.4615    8.5692 C   0  0  0  0  0  0  0  0  0  0  0  0
    2.0550   -3.2012    9.5518 C   0  0  0  0  0  0  0  0  0  0  0  0
    0.2532    1.6710    8.4288 O   0  0  0  0  0  0  0  0  0  0  0  0
    0.5584   -0.2125    7.0871 O   0  0  0  0  0  0  0  0  0  0  0  0
    2.3398    5.9057    6.4423 S   0  0  0  0  0  0  0  0  0  0  0  0
    0.5248   -5.1595    8.3617 S   0  0  0  0  0  0  0  0  0  0  0  0
    7.9706    0.1966   12.3167 S   0  0  0  0  0  0  0  0  0  0  0  0
   -1.8762   -2.2080    8.8846 C   0  0  0  0  0  0  0  0  0  0  0  0
   -2.2296   -1.0890    8.1389 C   0  0  0  0  0  0  0  0  0  0  0  0
   -3.2961   -1.1885    7.1692 C   0  0  0  0  0  0  0  0  0  0  0  0
   -3.8502   -2.4954    6.9622 C   0  0  0  0  0  0  0  0  0  0  0  0
   -3.4010   -3.5888    7.7248 C   0  0  0  0  0  0  0  0  0  0  0  0
   -2.4301   -3.4475    8.6662 C   0  0  0  0  0  0  0  0  0  0  0  0
   -3.9984   -0.0813    6.5620 C   0  0  0  0  0  0  0  0  0  0  0  0
   -5.2303   -0.3912    5.9500 C   0  0  0  0  0  0  0  0  0  0  0  0
   -5.5833   -1.7438    5.6705 C   0  0  0  0  0  0  0  0  0  0  0  0
   -4.8568   -2.7798    6.1070 N   0  0  0  0  0  0  0  0  0  0  0  0
   -3.7176    1.3283    6.6718 C   0  0  0  0  0  0  0  0  0  0  0  0
   -4.8088    2.2406    6.5183 C   0  0  0  0  0  0  0  0  0  0  0  0
   -6.0040    1.9143    5.9966 N   0  0  0  0  0  0  0  0  0  0  0  0
   -6.1809    0.6332    5.6520 C   0  0  0  0  0  0  0  0  0  0  0  0
   -7.4043    0.2842    5.0654 C   0  0  0  0  0  0  0  0  0  0  0  0
   -7.7005   -1.0196    4.7512 C   0  0  0  0  0  0  0  0  0  0  0  0
   -6.7968   -2.0180    5.0252 C   0  0  0  0  0  0  0  0  0  0  0  0
   -2.4161    1.9114    6.8901 C   0  0  0  0  0  0  0  0  0  0  0  0
   -2.3356    3.2287    7.3369 C   0  0  0  0  0  0  0  0  0  0  0  0
   -3.4457    4.0508    7.3456 C   0  0  0  0  0  0  0  0  0  0  0  0
   -4.6441    3.5819    6.8972 C   0  0  0  0  0  0  0  0  0  0  0  0
   -1.4877    0.0259    8.4769 O   0  0  0  0  0  0  0  0  0  0  0  0
   -1.2460    1.2602    6.5485 O   0  0  0  0  0  0  0  0  0  0  0  0
   -1.8574   -4.8890    9.6130 S   0  0  0  0  0  0  0  0  0  0  0  0
   -3.3614    5.7769    7.8676 S   0  0  0  0  0  0  0  0  0  0  0  0
   -9.3196   -1.4010    4.0362 S   0  0  0  0  0  0  0  0  0  0  0  0
   -0.4719    0.6822    7.6324 B   0  0  0  0  0  0  0  0  0  0  0  0
    8.3036    1.6711   12.2509 O   0  0  0  0  0  0  0  0  0  0  0  0
    7.1576    0.1034   13.7849 O   0  0  0  0  0  0  0  0  0  0  0  0
    6.5108    1.2889   14.1072 C   0  0  0  0  0  0  0  0  0  0  0  0
    1.1697   -5.4469    6.8280 O   0  0  0  0  0  0  0  0  0  0  0  0
    2.5576   -5.4936    6.8258 C   0  0  0  0  0  0  0  0  0  0  0  0
    1.5491   -5.8797    9.2215 O   0  0  0  0  0  0  0  0  0  0  0  0
   -1.1209   -4.1314   10.7084 O   0  0  0  0  0  0  0  0  0  0  0  0
   -3.3411   -5.2052   10.3625 O   0  0  0  0  0  0  0  0  0  0  0  0
   -3.6436   -4.2767   11.3497 C   0  0  0  0  0  0  0  0  0  0  0  0
  -10.1707   -0.7905    5.1292 O   0  0  0  0  0  0  0  0  0  0  0  0
   -9.3084   -3.0288    4.4701 O   0  0  0  0  0  0  0  0  0  0  0  0
   -9.7607   -3.2224    5.7683 C   0  0  0  0  0  0  0  0  0  0  0  0
   -4.3276    6.3491    6.8507 O   0  0  0  0  0  0  0  0  0  0  0  0
   -1.8842    6.1361    7.1570 O   0  0  0  0  0  0  0  0  0  0  0  0
   -1.9293    6.0946    5.7702 C   0  0  0  0  0  0  0  0  0  0  0  0
    3.3471    5.7935    5.3175 O   0  0  0  0  0  0  0  0  0  0  0  0
    0.8976    5.6514    5.6311 O   0  0  0  0  0  0  0  0  0  0  0  0
    1.0563    4.7799    4.5752 C   0  0  0  0  0  0  0  0  0  0  0  0
   -9.7630   -4.2921    5.9945 H   0  0  0  0  0  0  0  0  0  0  0  0
  -10.7753   -2.8178    5.8441 H   0  0  0  0  0  0  0  0  0  0  0  0
   -9.1069   -2.6906    6.4655 H   0  0  0  0  0  0  0  0  0  0  0  0
   -1.0060    6.5335    5.3821 H   0  0  0  0  0  0  0  0  0  0  0  0
   -2.7906    6.6725    5.4228 H   0  0  0  0  0  0  0  0  0  0  0  0
   -2.0163    5.0584    5.4341 H   0  0  0  0  0  0  0  0  0  0  0  0
    0.0692    4.4582    4.2356 H   0  0  0  0  0  0  0  0  0  0  0  0
    1.6330    3.9088    4.8952 H   0  0  0  0  0  0  0  0  0  0  0  0
    1.6005    5.2981    3.7800 H   0  0  0  0  0  0  0  0  0  0  0  0
   -4.5549   -4.5909   11.8654 H   0  0  0  0  0  0  0  0  0  0  0  0
   -3.7919   -3.2933   10.8956 H   0  0  0  0  0  0  0  0  0  0  0  0
   -2.8070   -4.2373   12.0550 H   0  0  0  0  0  0  0  0  0  0  0  0
    2.8888   -6.2229    7.5720 H   0  0  0  0  0  0  0  0  0  0  0  0
    2.9538   -4.5009    7.0581 H   0  0  0  0  0  0  0  0  0  0  0  0
    2.8939   -5.7887    5.8278 H   0  0  0  0  0  0  0  0  0  0  0  0
    6.0866    1.1984   15.1112 H   0  0  0  0  0  0  0  0  0  0  0  0
    5.7141    1.4835   13.3841 H   0  0  0  0  0  0  0  0  0  0  0  0
    7.2430    2.1029   14.0820 H   0  0  0  0  0  0  0  0  0  0  0  0
   -8.1353    1.0537    4.8869 H   0  0  0  0  0  0  0  0  0  0  0  0
   -7.0629   -3.0412    4.8307 H   0  0  0  0  0  0  0  0  0  0  0  0
   -5.4789    4.2556    6.8123 H   0  0  0  0  0  0  0  0  0  0  0  0
   -3.8819   -4.5423    7.5990 H   0  0  0  0  0  0  0  0  0  0  0  0
   -1.3843    3.6324    7.6191 H   0  0  0  0  0  0  0  0  0  0  0  0
   -1.1237   -2.1005    9.6466 H   0  0  0  0  0  0  0  0  0  0  0  0
    0.4115    3.8704    7.1166 H   0  0  0  0  0  0  0  0  0  0  0  0
   -0.0099   -2.6350    6.9996 H   0  0  0  0  0  0  0  0  0  0  0  0
    2.3956   -4.0109   10.1747 H   0  0  0  0  0  0  0  0  0  0  0  0
    4.5890    4.3761    7.3133 H   0  0  0  0  0  0  0  0  0  0  0  0
    7.0415    2.0346   10.3325 H   0  0  0  0  0  0  0  0  0  0  0  0
    5.7204   -1.6007   12.0593 H   0  0  0  0  0  0  0  0  0  0  0  0
  1  2  2  0  0  0  0
  1 96  1  0  0  0  0
  2  3  1  0  0  0  0
  3  4  2  0  0  0  0
  3  7  1  0  0  0  0
  4  5  1  0  0  0  0
  5  6  2  0  0  0  0
  5 99  1  0  0  0  0
  6  1  1  0  0  0  0
  6 24  1  0  0  0  0
  7  8  1  0  0  0  0
  7 11  2  0  0  0  0
  8  9  1  0  0  0  0
  9 10  2  0  0  0  0
 10  4  1  0  0  0  0
 11 12  1  0  0  0  0
 11 18  1  0  0  0  0
 12 13  2  0  0  0  0
 13 14  1  0  0  0  0
 14  8  1  0  0  0  0
 14 15  2  0  0  0  0
 15 16  1  0  0  0  0
 15101  1  0  0  0  0
 16 17  2  0  0  0  0
 16 26  1  0  0  0  0
 17  9  1  0  0  0  0
 17100  1  0  0  0  0
 18 19  2  0  0  0  0
 19 20  1  0  0  0  0
 19 97  1  0  0  0  0
 20 21  2  0  0  0  0
 20 25  1  0  0  0  0
 21 12  1  0  0  0  0
 21 98  1  0  0  0  0
 22  2  1  0  0  0  0
 23 18  1  0  0  0  0
 24 69  2  0  0  0  0
 24 70  1  0  0  0  0
 25 57  1  0  0  0  0
 25 59  2  0  0  0  0
 26 54  2  0  0  0  0
 26 55  1  0  0  0  0
 27 28  2  0  0  0  0
 27 95  1  0  0  0  0
 28 29  1  0  0  0  0
 28 48  1  0  0  0  0
 29 30  2  0  0  0  0
 29 33  1  0  0  0  0
 30 31  1  0  0  0  0
 31 32  2  0  0  0  0
 31 93  1  0  0  0  0
 32 27  1  0  0  0  0
 32 50  1  0  0  0  0
 33 37  2  0  0  0  0
 34 33  1  0  0  0  0
 34 35  1  0  0  0  0
 35 36  2  0  0  0  0
 36 30  1  0  0  0  0
 37 38  1  0  0  0  0
 37 44  1  0  0  0  0
 38 39  2  0  0  0  0
 39 40  1  0  0  0  0
 40 34  1  0  0  0  0
 40 41  2  0  0  0  0
 41 42  1  0  0  0  0
 41 90  1  0  0  0  0
 42 43  2  0  0  0  0
 42 52  1  0  0  0  0
 43 35  1  0  0  0  0
 43 91  1  0  0  0  0
 44 45  2  0  0  0  0
 44 49  1  0  0  0  0
 45 46  1  0  0  0  0
 45 94  1  0  0  0  0
 46 47  2  0  0  0  0
 46 51  1  0  0  0  0
 47 38  1  0  0  0  0
 47 92  1  0  0  0  0
 50 60  2  0  0  0  0
 50 61  1  0  0  0  0
 51 66  2  0  0  0  0
 51 67  1  0  0  0  0
 52 63  2  0  0  0  0
 52 64  1  0  0  0  0
 53 49  1  0  0  0  0
 53 22  1  0  0  0  0
 53 48  1  0  0  0  0
 53 23  1  0  0  0  0
 55 56  1  0  0  0  0
 56 87  1  0  0  0  0
 56 88  1  0  0  0  0
 56 89  1  0  0  0  0
 57 58  1  0  0  0  0
 58 84  1  0  0  0  0
 58 85  1  0  0  0  0
 58 86  1  0  0  0  0
 61 62  1  0  0  0  0
 62 81  1  0  0  0  0
 62 82  1  0  0  0  0
 62 83  1  0  0  0  0
 64 65  1  0  0  0  0
 65 72  1  0  0  0  0
 65 73  1  0  0  0  0
 65 74  1  0  0  0  0
 67 68  1  0  0  0  0
 68 75  1  0  0  0  0
 68 76  1  0  0  0  0
 68 77  1  0  0  0  0
 70 71  1  0  0  0  0
 71 78  1  0  0  0  0
 71 79  1  0  0  0  0
 71 80  1  0  0  0  0
102103  2  0  0  0  0
102197  1  0  0  0  0
103104  1  0  0  0  0
104105  2  0  0  0  0
104108  1  0  0  0  0
105106  1  0  0  0  0
106107  2  0  0  0  0
106200  1  0  0  0  0
107102  1  0  0  0  0
107125  1  0  0  0  0
108109  1  0  0  0  0
108112  2  0  0  0  0
109110  1  0  0  0  0
110111  2  0  0  0  0
111105  1  0  0  0  0
112113  1  0  0  0  0
112119  1  0  0  0  0
113114  2  0  0  0  0
114115  1  0  0  0  0
115109  1  0  0  0  0
115116  2  0  0  0  0
116117  1  0  0  0  0
116202  1  0  0  0  0
117118  2  0  0  0  0
117127  1  0  0  0  0
118110  1  0  0  0  0
118201  1  0  0  0  0
119120  2  0  0  0  0
120121  1  0  0  0  0
120198  1  0  0  0  0
121122  2  0  0  0  0
121126  1  0  0  0  0
122113  1  0  0  0  0
122199  1  0  0  0  0
123103  1  0  0  0  0
124119  1  0  0  0  0
125170  2  0  0  0  0
125171  1  0  0  0  0
126158  1  0  0  0  0
126160  2  0  0  0  0
127155  2  0  0  0  0
127156  1  0  0  0  0
128129  2  0  0  0  0
128196  1  0  0  0  0
129130  1  0  0  0  0
129149  1  0  0  0  0
130131  2  0  0  0  0
130134  1  0  0  0  0
131132  1  0  0  0  0
132133  2  0  0  0  0
132194  1  0  0  0  0
133128  1  0  0  0  0
133151  1  0  0  0  0
134138  2  0  0  0  0
135134  1  0  0  0  0
135136  1  0  0  0  0
136137  2  0  0  0  0
137131  1  0  0  0  0
138139  1  0  0  0  0
138145  1  0  0  0  0
139140  2  0  0  0  0
140141  1  0  0  0  0
141135  1  0  0  0  0
141142  2  0  0  0  0
142143  1  0  0  0  0
142191  1  0  0  0  0
143144  2  0  0  0  0
143153  1  0  0  0  0
144136  1  0  0  0  0
144192  1  0  0  0  0
145146  2  0  0  0  0
145150  1  0  0  0  0
146147  1  0  0  0  0
146195  1  0  0  0  0
147148  2  0  0  0  0
147152  1  0  0  0  0
148139  1  0  0  0  0
148193  1  0  0  0  0
151161  2  0  0  0  0
151162  1  0  0  0  0
152167  2  0  0  0  0
152168  1  0  0  0  0
153164  2  0  0  0  0
153165  1  0  0  0  0
154150  1  0  0  0  0
154123  1  0  0  0  0
154149  1  0  0  0  0
154124  1  0  0  0  0
156157  1  0  0  0  0
157188  1  0  0  0  0
157189  1  0  0  0  0
157190  1  0  0  0  0
158159  1  0  0  0  0
159185  1  0  0  0  0
159186  1  0  0  0  0
159187  1  0  0  0  0
162163  1  0  0  0  0
163182  1  0  0  0  0
163183  1  0  0  0  0
163184  1  0  0  0  0
165166  1  0  0  0  0
166173  1  0  0  0  0
166174  1  0  0  0  0
166175  1  0  0  0  0
168169  1  0  0  0  0
169176  1  0  0  0  0
169177  1  0  0  0  0
169178  1  0  0  0  0
171172  1  0  0  0  0
172179  1  0  0  0  0
172180  1  0  0  0  0
172181  1  0  0  0  0
M  CHG  1   8   1
M  CHG  1  53  -1
M  CHG  1 109   1
M  CHG  1 154  -1
M  END
