 energy: -110.506763441982 gnorm: 0.000184544759 xtb: 6.7.1 (edcfbbe)
          03042512213D

 58 62  0     0  0            999 V2000
   -2.0761    1.4796   -2.6770 C   0  0  0  0  0  0  0  0  0  0  0  0
   -1.8412    0.6588   -1.5958 C   0  0  0  0  0  0  0  0  0  0  0  0
   -1.0126    1.1060   -0.5373 C   0  0  0  0  0  0  0  0  0  0  0  0
   -0.2206    2.2856   -0.7214 C   0  0  0  0  0  0  0  0  0  0  0  0
   -0.5252    3.1299   -1.8207 C   0  0  0  0  0  0  0  0  0  0  0  0
   -1.4550    2.7345   -2.7306 C   0  0  0  0  0  0  0  0  0  0  0  0
   -0.8387    0.4123    0.6982 C   0  0  0  0  0  0  0  0  0  0  0  0
    0.3544    0.6535    1.3962 C   0  0  0  0  0  0  0  0  0  0  0  0
    1.1673    1.7732    1.0316 C   0  0  0  0  0  0  0  0  0  0  0  0
    0.7896    2.6305    0.0700 N   0  0  0  0  0  0  0  0  0  0  0  0
   -1.7595   -0.5007    1.2965 C   0  0  0  0  0  0  0  0  0  0  0  0
   -1.2178   -1.4093    2.2627 C   0  0  0  0  0  0  0  0  0  0  0  0
    0.0059   -1.3043    2.7740 N   0  0  0  0  0  0  0  0  0  0  0  0
    0.7361   -0.2241    2.4597 C   0  0  0  0  0  0  0  0  0  0  0  0
    1.9397    0.0346    3.1326 C   0  0  0  0  0  0  0  0  0  0  0  0
    2.7016    1.1207    2.7622 C   0  0  0  0  0  0  0  0  0  0  0  0
    2.3489    1.9944    1.7516 C   0  0  0  0  0  0  0  0  0  0  0  0
   -3.1555   -0.4982    1.0608 C   0  0  0  0  0  0  0  0  0  0  0  0
   -3.9367   -1.5198    1.5565 C   0  0  0  0  0  0  0  0  0  0  0  0
   -3.3441   -2.5240    2.3257 C   0  0  0  0  0  0  0  0  0  0  0  0
   -2.0392   -2.4724    2.7162 C   0  0  0  0  0  0  0  0  0  0  0  0
   -3.6657    0.5909    0.4086 O   0  0  0  0  0  0  0  0  0  0  0  0
   -2.2946   -0.6306   -1.5125 O   0  0  0  0  0  0  0  0  0  0  0  0
   -1.9566    3.7926   -4.1111 S   0  0  0  0  0  0  0  0  0  0  0  0
   -4.3513   -3.9325    2.8606 S   0  0  0  0  0  0  0  0  0  0  0  0
    0.0050    4.0617   -1.9356 H   0  0  0  0  0  0  0  0  0  0  0  0
   -2.7258    1.1982   -3.4907 H   0  0  0  0  0  0  0  0  0  0  0  0
    2.9839    2.8267    1.4927 H   0  0  0  0  0  0  0  0  0  0  0  0
    2.2521   -0.6027    3.9442 H   0  0  0  0  0  0  0  0  0  0  0  0
   -1.6174   -3.2082    3.3819 H   0  0  0  0  0  0  0  0  0  0  0  0
   -4.9998   -1.5826    1.3874 H   0  0  0  0  0  0  0  0  0  0  0  0
   -1.1303    4.9858   -4.0210 O   0  0  0  0  0  0  0  0  0  0  0  0
   -3.4844    4.1799   -3.4957 O   0  0  0  0  0  0  0  0  0  0  0  0
   -3.4763    4.9209   -2.3055 C   0  0  0  0  0  0  0  0  0  0  0  0
    4.2767    1.4651    3.5903 S   0  0  0  0  0  0  0  0  0  0  0  0
    4.3402    0.5542    4.7263 O   0  0  0  0  0  0  0  0  0  0  0  0
    5.2847    0.8333    2.3874 O   0  0  0  0  0  0  0  0  0  0  0  0
    5.1736   -0.5473    2.1802 C   0  0  0  0  0  0  0  0  0  0  0  0
   -5.6994   -3.6304    2.3915 O   0  0  0  0  0  0  0  0  0  0  0  0
   -3.6910   -5.0627    1.7959 O   0  0  0  0  0  0  0  0  0  0  0  0
   -3.8612   -4.7810    0.4343 C   0  0  0  0  0  0  0  0  0  0  0  0
   -5.0494    0.6571    0.2049 C   0  0  0  0  0  0  0  0  0  0  0  0
   -3.1037   -1.1209   -2.5432 C   0  0  0  0  0  0  0  0  0  0  0  0
   -3.7334   -5.7151   -0.1131 H   0  0  0  0  0  0  0  0  0  0  0  0
   -3.1237   -4.0472    0.0920 H   0  0  0  0  0  0  0  0  0  0  0  0
   -4.8701   -4.3912    0.2563 H   0  0  0  0  0  0  0  0  0  0  0  0
    6.0954   -0.8842    1.7049 H   0  0  0  0  0  0  0  0  0  0  0  0
    4.3183   -0.7800    1.5372 H   0  0  0  0  0  0  0  0  0  0  0  0
    5.0501   -1.0607    3.1403 H   0  0  0  0  0  0  0  0  0  0  0  0
   -3.3690   -2.1385   -2.2541 H   0  0  0  0  0  0  0  0  0  0  0  0
   -2.5698   -1.1460   -3.5012 H   0  0  0  0  0  0  0  0  0  0  0  0
   -4.0189   -0.5294   -2.6611 H   0  0  0  0  0  0  0  0  0  0  0  0
   -5.2249    1.5890   -0.3332 H   0  0  0  0  0  0  0  0  0  0  0  0
   -5.5980    0.6771    1.1540 H   0  0  0  0  0  0  0  0  0  0  0  0
   -5.4146   -0.1821   -0.3982 H   0  0  0  0  0  0  0  0  0  0  0  0
   -4.4350    5.4349   -2.2315 H   0  0  0  0  0  0  0  0  0  0  0  0
   -2.6681    5.6600   -2.3308 H   0  0  0  0  0  0  0  0  0  0  0  0
   -3.3362    4.2674   -1.4382 H   0  0  0  0  0  0  0  0  0  0  0  0
  1  2  2  0  0  0  0
  1  6  1  0  0  0  0
  1 27  1  0  0  0  0
  2  3  1  0  0  0  0
  2 23  1  0  0  0  0
  3  4  2  0  0  0  0
  3  7  1  0  0  0  0
  4  5  1  0  0  0  0
  4 10  1  0  0  0  0
  5  6  2  0  0  0  0
  5 26  1  0  0  0  0
  6 24  1  0  0  0  0
  7  8  2  0  0  0  0
  7 11  1  0  0  0  0
  8  9  1  0  0  0  0
  8 14  1  0  0  0  0
  9 10  1  0  0  0  0
  9 17  2  0  0  0  0
 11 12  2  0  0  0  0
 11 18  1  0  0  0  0
 12 13  1  0  0  0  0
 12 21  1  0  0  0  0
 13 14  2  0  0  0  0
 14 15  1  0  0  0  0
 15 16  2  0  0  0  0
 15 29  1  0  0  0  0
 16 17  1  0  0  0  0
 16 35  1  0  0  0  0
 17 28  1  0  0  0  0
 18 19  2  0  0  0  0
 18 22  1  0  0  0  0
 19 20  1  0  0  0  0
 19 31  1  0  0  0  0
 20 21  2  0  0  0  0
 20 25  1  0  0  0  0
 21 30  1  0  0  0  0
 22 42  1  0  0  0  0
 23 43  1  0  0  0  0
 24 32  2  0  0  0  0
 24 33  1  0  0  0  0
 25 39  2  0  0  0  0
 25 40  1  0  0  0  0
 33 34  1  0  0  0  0
 34 56  1  0  0  0  0
 34 57  1  0  0  0  0
 34 58  1  0  0  0  0
 35 36  2  0  0  0  0
 35 37  1  0  0  0  0
 37 38  1  0  0  0  0
 38 47  1  0  0  0  0
 38 48  1  0  0  0  0
 38 49  1  0  0  0  0
 40 41  1  0  0  0  0
 41 44  1  0  0  0  0
 41 45  1  0  0  0  0
 41 46  1  0  0  0  0
 42 53  1  0  0  0  0
 42 54  1  0  0  0  0
 42 55  1  0  0  0  0
 43 50  1  0  0  0  0
 43 51  1  0  0  0  0
 43 52  1  0  0  0  0
M  CHG  1   1  -1
M  END
