 energy: -21.817289151929 gnorm: 0.000604138175 xtb: 6.7.1 (edcfbbe)
          03042512223D

116124  0     0  0            999 V2000
   -2.0282    1.4515   -2.6648 C   0  0  0  0  0  0  0  0  0  0  0  0
   -1.8070    0.4904   -1.6857 C   0  0  0  0  0  0  0  0  0  0  0  0
   -1.0492    0.8683   -0.5216 C   0  0  0  0  0  0  0  0  0  0  0  0
   -0.2668    2.0580   -0.5705 C   0  0  0  0  0  0  0  0  0  0  0  0
   -0.5146    2.9727   -1.6054 C   0  0  0  0  0  0  0  0  0  0  0  0
   -1.4114    2.6911   -2.5965 C   0  0  0  0  0  0  0  0  0  0  0  0
   -0.9463    0.0547    0.6515 C   0  0  0  0  0  0  0  0  0  0  0  0
    0.1835    0.2613    1.4497 C   0  0  0  0  0  0  0  0  0  0  0  0
    1.0161    1.3975    1.2207 C   0  0  0  0  0  0  0  0  0  0  0  0
    0.7291    2.3359    0.2984 N   0  0  0  0  0  0  0  0  0  0  0  0
   -1.8939   -0.9111    1.1181 C   0  0  0  0  0  0  0  0  0  0  0  0
   -1.4661   -1.8205    2.1287 C   0  0  0  0  0  0  0  0  0  0  0  0
   -0.2762   -1.7332    2.7648 N   0  0  0  0  0  0  0  0  0  0  0  0
    0.4907   -0.6628    2.4899 C   0  0  0  0  0  0  0  0  0  0  0  0
    1.6533   -0.4490    3.2370 C   0  0  0  0  0  0  0  0  0  0  0  0
    2.4581    0.6417    3.0040 C   0  0  0  0  0  0  0  0  0  0  0  0
    2.1490    1.5601    2.0266 C   0  0  0  0  0  0  0  0  0  0  0  0
   -3.2827   -0.8985    0.7404 C   0  0  0  0  0  0  0  0  0  0  0  0
   -4.0979   -1.9336    1.1823 C   0  0  0  0  0  0  0  0  0  0  0  0
   -3.6354   -2.8792    2.0802 C   0  0  0  0  0  0  0  0  0  0  0  0
   -2.3539   -2.8228    2.5516 C   0  0  0  0  0  0  0  0  0  0  0  0
   -3.7924    0.2106    0.0670 O   0  0  0  0  0  0  0  0  0  0  0  0
   -2.2099   -0.8361   -1.8075 O   0  0  0  0  0  0  0  0  0  0  0  0
   -1.7784    3.9618   -3.8278 S   0  0  0  0  0  0  0  0  0  0  0  0
   -4.7670   -4.1656    2.6622 S   0  0  0  0  0  0  0  0  0  0  0  0
    0.0010    3.9170   -1.6147 H   0  0  0  0  0  0  0  0  0  0  0  0
   -2.6688    1.2425   -3.5012 H   0  0  0  0  0  0  0  0  0  0  0  0
    2.7954    2.4025    1.8572 H   0  0  0  0  0  0  0  0  0  0  0  0
    1.9319   -1.1575    3.9969 H   0  0  0  0  0  0  0  0  0  0  0  0
   -2.0118   -3.5503    3.2638 H   0  0  0  0  0  0  0  0  0  0  0  0
   -5.1235   -1.9972    0.8698 H   0  0  0  0  0  0  0  0  0  0  0  0
   -1.0057    5.1058   -3.2033 O   0  0  0  0  0  0  0  0  0  0  0  0
   -3.3397    4.2942   -3.2934 O   0  0  0  0  0  0  0  0  0  0  0  0
   -3.3564    4.9547   -2.0718 C   0  0  0  0  0  0  0  0  0  0  0  0
    3.9545    0.8524    3.9923 S   0  0  0  0  0  0  0  0  0  0  0  0
    4.1490   -0.5901    4.4059 O   0  0  0  0  0  0  0  0  0  0  0  0
    5.0299    0.9718    2.7069 O   0  0  0  0  0  0  0  0  0  0  0  0
    5.1411   -0.2173    1.9980 C   0  0  0  0  0  0  0  0  0  0  0  0
   -5.4480   -4.4659    1.3461 O   0  0  0  0  0  0  0  0  0  0  0  0
   -3.6228   -5.3918    2.7432 O   0  0  0  0  0  0  0  0  0  0  0  0
   -3.2599   -5.8507    1.4838 C   0  0  0  0  0  0  0  0  0  0  0  0
   -5.1068    0.0721   -0.4173 C   0  0  0  0  0  0  0  0  0  0  0  0
   -2.8434   -1.1606   -3.0198 C   0  0  0  0  0  0  0  0  0  0  0  0
   -2.5646   -6.6872    1.5952 H   0  0  0  0  0  0  0  0  0  0  0  0
   -2.7839   -5.0445    0.9189 H   0  0  0  0  0  0  0  0  0  0  0  0
   -4.1634   -6.1817    0.9615 H   0  0  0  0  0  0  0  0  0  0  0  0
    5.9306   -0.1097    1.2490 H   0  0  0  0  0  0  0  0  0  0  0  0
    4.1930   -0.4447    1.5034 H   0  0  0  0  0  0  0  0  0  0  0  0
    5.3977   -1.0200    2.6965 H   0  0  0  0  0  0  0  0  0  0  0  0
   -3.0836   -2.2243   -3.0051 H   0  0  0  0  0  0  0  0  0  0  0  0
   -2.1704   -0.9582   -3.8539 H   0  0  0  0  0  0  0  0  0  0  0  0
   -3.7665   -0.5892   -3.1210 H   0  0  0  0  0  0  0  0  0  0  0  0
   -5.3375    0.9427   -1.0324 H   0  0  0  0  0  0  0  0  0  0  0  0
   -5.8114    0.0270    0.4136 H   0  0  0  0  0  0  0  0  0  0  0  0
   -5.1791   -0.8266   -1.0307 H   0  0  0  0  0  0  0  0  0  0  0  0
   -4.3784    5.2768   -1.8553 H   0  0  0  0  0  0  0  0  0  0  0  0
   -2.6963    5.8263   -2.1320 H   0  0  0  0  0  0  0  0  0  0  0  0
   -3.0111    4.2801   -1.2844 H   0  0  0  0  0  0  0  0  0  0  0  0
   -2.0895    2.5198    2.6378 C   0  0  0  0  0  0  0  0  0  0  0  0
   -2.0458    1.5587    3.6377 C   0  0  0  0  0  0  0  0  0  0  0  0
   -1.0393    1.6631    4.6573 C   0  0  0  0  0  0  0  0  0  0  0  0
   -0.0494    2.6817    4.5416 C   0  0  0  0  0  0  0  0  0  0  0  0
   -0.1863    3.6483    3.5289 C   0  0  0  0  0  0  0  0  0  0  0  0
   -1.1745    3.5535    2.5890 C   0  0  0  0  0  0  0  0  0  0  0  0
   -0.8855    0.7051    5.7096 C   0  0  0  0  0  0  0  0  0  0  0  0
    0.3661    0.6493    6.3325 C   0  0  0  0  0  0  0  0  0  0  0  0
    1.2990    1.7097    6.1439 C   0  0  0  0  0  0  0  0  0  0  0  0
    1.0681    2.7347    5.3032 N   0  0  0  0  0  0  0  0  0  0  0  0
   -1.8521   -0.2500    6.1670 C   0  0  0  0  0  0  0  0  0  0  0  0
   -1.3668   -1.4209    6.8230 C   0  0  0  0  0  0  0  0  0  0  0  0
   -0.1094   -1.5342    7.3044 N   0  0  0  0  0  0  0  0  0  0  0  0
    0.6953   -0.4632    7.1633 C   0  0  0  0  0  0  0  0  0  0  0  0
    1.9232   -0.4415    7.8338 C   0  0  0  0  0  0  0  0  0  0  0  0
    2.7813    0.6281    7.7193 C   0  0  0  0  0  0  0  0  0  0  0  0
    2.4921    1.6802    6.8778 C   0  0  0  0  0  0  0  0  0  0  0  0
   -3.2749   -0.0278    6.1326 C   0  0  0  0  0  0  0  0  0  0  0  0
   -4.1087   -1.1189    6.3451 C   0  0  0  0  0  0  0  0  0  0  0  0
   -3.5964   -2.3411    6.7524 C   0  0  0  0  0  0  0  0  0  0  0  0
   -2.2670   -2.4755    7.0497 C   0  0  0  0  0  0  0  0  0  0  0  0
   -3.7486    1.2747    5.9753 O   0  0  0  0  0  0  0  0  0  0  0  0
   -2.9094    0.4629    3.5925 O   0  0  0  0  0  0  0  0  0  0  0  0
   -1.2327    4.7486    1.2309 S   0  0  0  0  0  0  0  0  0  0  0  0
   -4.7261   -3.7467    6.8961 S   0  0  0  0  0  0  0  0  0  0  0  0
    0.5312    4.4472    3.4684 H   0  0  0  0  0  0  0  0  0  0  0  0
   -2.7973    2.4275    1.8357 H   0  0  0  0  0  0  0  0  0  0  0  0
    3.1933    2.4878    6.7686 H   0  0  0  0  0  0  0  0  0  0  0  0
    2.1996   -1.2721    8.4592 H   0  0  0  0  0  0  0  0  0  0  0  0
   -1.8977   -3.4018    7.4521 H   0  0  0  0  0  0  0  0  0  0  0  0
   -5.1692   -1.0304    6.1974 H   0  0  0  0  0  0  0  0  0  0  0  0
   -1.3057    6.0189    2.0522 O   0  0  0  0  0  0  0  0  0  0  0  0
   -2.8490    4.5070    0.8275 O   0  0  0  0  0  0  0  0  0  0  0  0
   -3.7067    5.1438    1.7159 C   0  0  0  0  0  0  0  0  0  0  0  0
    4.2985    0.6477    8.7062 S   0  0  0  0  0  0  0  0  0  0  0  0
    4.3526   -0.8276    9.0466 O   0  0  0  0  0  0  0  0  0  0  0  0
    5.3645    0.7355    7.4091 O   0  0  0  0  0  0  0  0  0  0  0  0
    5.5209   -0.4948    6.7879 C   0  0  0  0  0  0  0  0  0  0  0  0
   -5.2132   -3.7747    5.4602 O   0  0  0  0  0  0  0  0  0  0  0  0
   -3.5511   -4.9524    6.8862 O   0  0  0  0  0  0  0  0  0  0  0  0
   -3.0254   -5.1830    5.6232 C   0  0  0  0  0  0  0  0  0  0  0  0
   -5.0810    1.4706    6.3868 C   0  0  0  0  0  0  0  0  0  0  0  0
   -4.2021    0.7703    3.1207 C   0  0  0  0  0  0  0  0  0  0  0  0
   -2.3296   -6.0248    5.6735 H   0  0  0  0  0  0  0  0  0  0  0  0
   -2.5048   -4.2896    5.2731 H   0  0  0  0  0  0  0  0  0  0  0  0
   -3.8443   -5.4174    4.9375 H   0  0  0  0  0  0  0  0  0  0  0  0
    6.1906   -0.3798    5.9303 H   0  0  0  0  0  0  0  0  0  0  0  0
    4.5438   -0.8504    6.4446 H   0  0  0  0  0  0  0  0  0  0  0  0
    5.9390   -1.2034    7.5102 H   0  0  0  0  0  0  0  0  0  0  0  0
   -4.8601   -0.0697    3.3451 H   0  0  0  0  0  0  0  0  0  0  0  0
   -4.1781    0.9330    2.0449 H   0  0  0  0  0  0  0  0  0  0  0  0
   -4.5665    1.6641    3.6279 H   0  0  0  0  0  0  0  0  0  0  0  0
   -5.2871    2.5414    6.3858 H   0  0  0  0  0  0  0  0  0  0  0  0
   -5.2142    1.0835    7.3978 H   0  0  0  0  0  0  0  0  0  0  0  0
   -5.7650    0.9760    5.6970 H   0  0  0  0  0  0  0  0  0  0  0  0
   -4.7407    4.9796    1.4009 H   0  0  0  0  0  0  0  0  0  0  0  0
   -3.4790    6.2144    1.7113 H   0  0  0  0  0  0  0  0  0  0  0  0
   -3.5569    4.7473    2.7237 H   0  0  0  0  0  0  0  0  0  0  0  0
  1  2  2  0  0  0  0
  1  6  1  0  0  0  0
  1 27  1  0  0  0  0
  2  3  1  0  0  0  0
  2 23  1  0  0  0  0
  3  4  2  0  0  0  0
  3  7  1  0  0  0  0
  4  5  1  0  0  0  0
  4 10  1  0  0  0  0
  5  6  2  0  0  0  0
  5 26  1  0  0  0  0
  6 24  1  0  0  0  0
  7  8  2  0  0  0  0
  7 11  1  0  0  0  0
  8  9  1  0  0  0  0
  8 14  1  0  0  0  0
  9 10  1  0  0  0  0
  9 17  2  0  0  0  0
 11 12  2  0  0  0  0
 11 18  1  0  0  0  0
 12 13  1  0  0  0  0
 12 21  1  0  0  0  0
 13 14  2  0  0  0  0
 14 15  1  0  0  0  0
 15 16  2  0  0  0  0
 15 29  1  0  0  0  0
 16 17  1  0  0  0  0
 16 35  1  0  0  0  0
 17 28  1  0  0  0  0
 18 19  2  0  0  0  0
 18 22  1  0  0  0  0
 19 20  1  0  0  0  0
 19 31  1  0  0  0  0
 20 21  2  0  0  0  0
 20 25  1  0  0  0  0
 21 30  1  0  0  0  0
 22 42  1  0  0  0  0
 23 43  1  0  0  0  0
 24 32  2  0  0  0  0
 24 33  1  0  0  0  0
 25 39  2  0  0  0  0
 25 40  1  0  0  0  0
 33 34  1  0  0  0  0
 34 56  1  0  0  0  0
 34 57  1  0  0  0  0
 34 58  1  0  0  0  0
 35 36  2  0  0  0  0
 35 37  1  0  0  0  0
 37 38  1  0  0  0  0
 38 47  1  0  0  0  0
 38 48  1  0  0  0  0
 38 49  1  0  0  0  0
 40 41  1  0  0  0  0
 41 44  1  0  0  0  0
 41 45  1  0  0  0  0
 41 46  1  0  0  0  0
 42 53  1  0  0  0  0
 42 54  1  0  0  0  0
 42 55  1  0  0  0  0
 43 50  1  0  0  0  0
 43 51  1  0  0  0  0
 43 52  1  0  0  0  0
 59 60  2  0  0  0  0
 59 64  1  0  0  0  0
 59 85  1  0  0  0  0
 60 61  1  0  0  0  0
 60 81  1  0  0  0  0
 61 62  2  0  0  0  0
 61 65  1  0  0  0  0
 62 63  1  0  0  0  0
 62 68  1  0  0  0  0
 63 64  2  0  0  0  0
 63 84  1  0  0  0  0
 64 82  1  0  0  0  0
 65 66  2  0  0  0  0
 65 69  1  0  0  0  0
 66 67  1  0  0  0  0
 66 72  1  0  0  0  0
 67 68  1  0  0  0  0
 67 75  2  0  0  0  0
 69 70  2  0  0  0  0
 69 76  1  0  0  0  0
 70 71  1  0  0  0  0
 70 79  1  0  0  0  0
 71 72  2  0  0  0  0
 72 73  1  0  0  0  0
 73 74  2  0  0  0  0
 73 87  1  0  0  0  0
 74 75  1  0  0  0  0
 74 93  1  0  0  0  0
 75 86  1  0  0  0  0
 76 77  2  0  0  0  0
 76 80  1  0  0  0  0
 77 78  1  0  0  0  0
 77 89  1  0  0  0  0
 78 79  2  0  0  0  0
 78 83  1  0  0  0  0
 79 88  1  0  0  0  0
 80100  1  0  0  0  0
 81101  1  0  0  0  0
 82 90  2  0  0  0  0
 82 91  1  0  0  0  0
 83 97  2  0  0  0  0
 83 98  1  0  0  0  0
 91 92  1  0  0  0  0
 92114  1  0  0  0  0
 92115  1  0  0  0  0
 92116  1  0  0  0  0
 93 94  2  0  0  0  0
 93 95  1  0  0  0  0
 95 96  1  0  0  0  0
 96105  1  0  0  0  0
 96106  1  0  0  0  0
 96107  1  0  0  0  0
 98 99  1  0  0  0  0
 99102  1  0  0  0  0
 99103  1  0  0  0  0
 99104  1  0  0  0  0
100111  1  0  0  0  0
100112  1  0  0  0  0
100113  1  0  0  0  0
101108  1  0  0  0  0
101109  1  0  0  0  0
101110  1  0  0  0  0
M  END
