 energy: -220.477226703236 gnorm: 0.000304523368 xtb: 6.7.1 (edcfbbe)
          03042512253D

116124  0     0  0            999 V2000
   -2.6766    0.8160   -2.5458 C   0  0  0  0  0  0  0  0  0  0  0  0
   -2.2154   -0.0030   -1.5332 C   0  0  0  0  0  0  0  0  0  0  0  0
   -1.5100    0.5762   -0.4450 C   0  0  0  0  0  0  0  0  0  0  0  0
   -1.0127    1.9109   -0.5817 C   0  0  0  0  0  0  0  0  0  0  0  0
   -1.5304    2.7291   -1.6113 C   0  0  0  0  0  0  0  0  0  0  0  0
   -2.3734    2.1810   -2.5315 C   0  0  0  0  0  0  0  0  0  0  0  0
   -1.1922   -0.1058    0.7740 C   0  0  0  0  0  0  0  0  0  0  0  0
   -0.0399    0.3530    1.4347 C   0  0  0  0  0  0  0  0  0  0  0  0
    0.5596    1.5892    1.0557 C   0  0  0  0  0  0  0  0  0  0  0  0
   -0.0415    2.4081    0.1916 N   0  0  0  0  0  0  0  0  0  0  0  0
   -1.9280   -1.1618    1.3964 C   0  0  0  0  0  0  0  0  0  0  0  0
   -1.2644   -1.8707    2.4538 C   0  0  0  0  0  0  0  0  0  0  0  0
   -0.0751   -1.5181    2.9443 N   0  0  0  0  0  0  0  0  0  0  0  0
    0.5059   -0.4087    2.5109 C   0  0  0  0  0  0  0  0  0  0  0  0
    1.6899    0.0508    3.1288 C   0  0  0  0  0  0  0  0  0  0  0  0
    2.2533    1.2435    2.7384 C   0  0  0  0  0  0  0  0  0  0  0  0
    1.7236    2.0198    1.7251 C   0  0  0  0  0  0  0  0  0  0  0  0
   -3.2810   -1.4962    1.1193 C   0  0  0  0  0  0  0  0  0  0  0  0
   -3.8490   -2.6030    1.7218 C   0  0  0  0  0  0  0  0  0  0  0  0
   -3.1418   -3.3454    2.6619 C   0  0  0  0  0  0  0  0  0  0  0  0
   -1.8912   -2.9824    3.0621 C   0  0  0  0  0  0  0  0  0  0  0  0
   -3.9842   -0.6520    0.3162 O   0  0  0  0  0  0  0  0  0  0  0  0
   -2.3144   -1.3522   -1.5298 O   0  0  0  0  0  0  0  0  0  0  0  0
   -3.1637    3.2279   -3.8124 S   0  0  0  0  0  0  0  0  0  0  0  0
   -3.9699   -4.7974    3.4030 S   0  0  0  0  0  0  0  0  0  0  0  0
   -1.2076    3.7546   -1.6866 H   0  0  0  0  0  0  0  0  0  0  0  0
   -3.2660    0.4323   -3.3626 H   0  0  0  0  0  0  0  0  0  0  0  0
    2.1803    2.9487    1.4237 H   0  0  0  0  0  0  0  0  0  0  0  0
    2.1360   -0.5293    3.9217 H   0  0  0  0  0  0  0  0  0  0  0  0
   -1.3591   -3.5131    3.8342 H   0  0  0  0  0  0  0  0  0  0  0  0
   -4.8532   -2.9325    1.5101 H   0  0  0  0  0  0  0  0  0  0  0  0
   -2.5005    4.5072   -3.6981 O   0  0  0  0  0  0  0  0  0  0  0  0
   -4.6350    3.3370   -3.0035 O   0  0  0  0  0  0  0  0  0  0  0  0
   -4.6677    4.1972   -1.8951 C   0  0  0  0  0  0  0  0  0  0  0  0
    3.6021    1.9463    3.7524 S   0  0  0  0  0  0  0  0  0  0  0  0
    4.0419    0.7984    4.5319 O   0  0  0  0  0  0  0  0  0  0  0  0
    4.6971    2.1375    2.5097 O   0  0  0  0  0  0  0  0  0  0  0  0
    5.2306    0.9639    1.9564 C   0  0  0  0  0  0  0  0  0  0  0  0
   -4.9786   -5.1552    2.4230 O   0  0  0  0  0  0  0  0  0  0  0  0
   -2.6760   -5.8439    3.1414 O   0  0  0  0  0  0  0  0  0  0  0  0
   -2.4295   -6.2145    1.8147 C   0  0  0  0  0  0  0  0  0  0  0  0
   -5.3426   -0.9313    0.0694 C   0  0  0  0  0  0  0  0  0  0  0  0
   -2.9542   -1.9859   -2.6113 C   0  0  0  0  0  0  0  0  0  0  0  0
   -1.9635   -7.2000    1.8192 H   0  0  0  0  0  0  0  0  0  0  0  0
   -1.7629   -5.4944    1.3270 H   0  0  0  0  0  0  0  0  0  0  0  0
   -3.3764   -6.2608    1.2657 H   0  0  0  0  0  0  0  0  0  0  0  0
    6.1974    1.2125    1.5208 H   0  0  0  0  0  0  0  0  0  0  0  0
    4.5680    0.5637    1.1820 H   0  0  0  0  0  0  0  0  0  0  0  0
    5.3655    0.2120    2.7407 H   0  0  0  0  0  0  0  0  0  0  0  0
   -2.9127   -3.0517   -2.3921 H   0  0  0  0  0  0  0  0  0  0  0  0
   -2.4331   -1.7883   -3.5535 H   0  0  0  0  0  0  0  0  0  0  0  0
   -3.9990   -1.6737   -2.7019 H   0  0  0  0  0  0  0  0  0  0  0  0
   -5.6958   -0.1201   -0.5669 H   0  0  0  0  0  0  0  0  0  0  0  0
   -5.9242   -0.9489    0.9960 H   0  0  0  0  0  0  0  0  0  0  0  0
   -5.4694   -1.8854   -0.4501 H   0  0  0  0  0  0  0  0  0  0  0  0
   -5.6817    4.5854   -1.8075 H   0  0  0  0  0  0  0  0  0  0  0  0
   -3.9712    5.0288   -2.0456 H   0  0  0  0  0  0  0  0  0  0  0  0
   -4.3945    3.6596   -0.9809 H   0  0  0  0  0  0  0  0  0  0  0  0
   -1.6917    3.0782    2.5488 C   0  0  0  0  0  0  0  0  0  0  0  0
   -1.8375    2.0870    3.4984 C   0  0  0  0  0  0  0  0  0  0  0  0
   -0.8368    1.9100    4.4949 C   0  0  0  0  0  0  0  0  0  0  0  0
    0.3359    2.7306    4.4406 C   0  0  0  0  0  0  0  0  0  0  0  0
    0.4440    3.7279    3.4426 C   0  0  0  0  0  0  0  0  0  0  0  0
   -0.5396    3.8606    2.5080 C   0  0  0  0  0  0  0  0  0  0  0  0
   -0.8361    0.8486    5.4521 C   0  0  0  0  0  0  0  0  0  0  0  0
    0.3905    0.5327    6.0580 C   0  0  0  0  0  0  0  0  0  0  0  0
    1.4733    1.4548    5.9832 C   0  0  0  0  0  0  0  0  0  0  0  0
    1.4146    2.5384    5.2128 N   0  0  0  0  0  0  0  0  0  0  0  0
   -1.9339    0.0090    5.8100 C   0  0  0  0  0  0  0  0  0  0  0  0
   -1.6082   -1.3153    6.2418 C   0  0  0  0  0  0  0  0  0  0  0  0
   -0.3973   -1.6521    6.6809 N   0  0  0  0  0  0  0  0  0  0  0  0
    0.5429   -0.7128    6.7397 C   0  0  0  0  0  0  0  0  0  0  0  0
    1.7475   -0.9475    7.4363 C   0  0  0  0  0  0  0  0  0  0  0  0
    2.7171    0.0342    7.4919 C   0  0  0  0  0  0  0  0  0  0  0  0
    2.6135    1.2171    6.7888 C   0  0  0  0  0  0  0  0  0  0  0  0
   -3.2924    0.4158    5.8440 C   0  0  0  0  0  0  0  0  0  0  0  0
   -4.2713   -0.5540    5.9166 C   0  0  0  0  0  0  0  0  0  0  0  0
   -3.9171   -1.9070    6.0342 C   0  0  0  0  0  0  0  0  0  0  0  0
   -2.6321   -2.2961    6.2595 C   0  0  0  0  0  0  0  0  0  0  0  0
   -3.5199    1.7493    5.8801 O   0  0  0  0  0  0  0  0  0  0  0  0
   -2.8462    1.1816    3.4523 O   0  0  0  0  0  0  0  0  0  0  0  0
   -0.2660    4.7802    0.9394 S   0  0  0  0  0  0  0  0  0  0  0  0
   -5.3135   -3.0376    5.7862 S   0  0  0  0  0  0  0  0  0  0  0  0
    1.3496    4.3100    3.3862 H   0  0  0  0  0  0  0  0  0  0  0  0
   -2.4194    3.2189    1.7657 H   0  0  0  0  0  0  0  0  0  0  0  0
    3.3896    1.9629    6.8298 H   0  0  0  0  0  0  0  0  0  0  0  0
    1.8975   -1.8841    7.9509 H   0  0  0  0  0  0  0  0  0  0  0  0
   -2.3747   -3.3173    6.4807 H   0  0  0  0  0  0  0  0  0  0  0  0
   -5.3202   -0.3056    5.8740 H   0  0  0  0  0  0  0  0  0  0  0  0
    1.1476    5.0835    0.9644 O   0  0  0  0  0  0  0  0  0  0  0  0
   -1.0654    6.1875    1.4375 O   0  0  0  0  0  0  0  0  0  0  0  0
   -0.3852    7.0131    2.3419 C   0  0  0  0  0  0  0  0  0  0  0  0
    4.1566   -0.2242    8.6284 S   0  0  0  0  0  0  0  0  0  0  0  0
    4.0411   -1.6255    8.9863 O   0  0  0  0  0  0  0  0  0  0  0  0
    5.3804   -0.0533    7.5395 O   0  0  0  0  0  0  0  0  0  0  0  0
    5.5417   -1.0689    6.5751 C   0  0  0  0  0  0  0  0  0  0  0  0
   -5.3770   -3.1489    4.3251 O   0  0  0  0  0  0  0  0  0  0  0  0
   -4.5380   -4.3700    6.3706 O   0  0  0  0  0  0  0  0  0  0  0  0
   -5.2498   -5.5876    6.2700 C   0  0  0  0  0  0  0  0  0  0  0  0
   -4.8420    2.2038    6.0425 C   0  0  0  0  0  0  0  0  0  0  0  0
   -3.9358    1.4271    2.5959 C   0  0  0  0  0  0  0  0  0  0  0  0
   -6.0037   -5.6589    7.0585 H   0  0  0  0  0  0  0  0  0  0  0  0
   -4.5181   -6.3852    6.3901 H   0  0  0  0  0  0  0  0  0  0  0  0
   -5.7247   -5.6811    5.2908 H   0  0  0  0  0  0  0  0  0  0  0  0
    6.6051   -1.1382    6.3493 H   0  0  0  0  0  0  0  0  0  0  0  0
    4.9824   -0.8111    5.6741 H   0  0  0  0  0  0  0  0  0  0  0  0
    5.1926   -2.0244    6.9789 H   0  0  0  0  0  0  0  0  0  0  0  0
   -4.6571    0.6417    2.8205 H   0  0  0  0  0  0  0  0  0  0  0  0
   -3.6509    1.3603    1.5422 H   0  0  0  0  0  0  0  0  0  0  0  0
   -4.3828    2.4070    2.7928 H   0  0  0  0  0  0  0  0  0  0  0  0
   -4.7742    3.2896    6.0912 H   0  0  0  0  0  0  0  0  0  0  0  0
   -5.2803    1.8252    6.9714 H   0  0  0  0  0  0  0  0  0  0  0  0
   -5.4776    1.9175    5.1992 H   0  0  0  0  0  0  0  0  0  0  0  0
   -0.7228    8.0370    2.1821 H   0  0  0  0  0  0  0  0  0  0  0  0
    0.6924    6.9524    2.1588 H   0  0  0  0  0  0  0  0  0  0  0  0
   -0.5933    6.7120    3.3747 H   0  0  0  0  0  0  0  0  0  0  0  0
  1  2  2  0  0  0  0
  1  6  1  0  0  0  0
  1 27  1  0  0  0  0
  2  3  1  0  0  0  0
  2 23  1  0  0  0  0
  3  4  2  0  0  0  0
  3  7  1  0  0  0  0
  4  5  1  0  0  0  0
  4 10  1  0  0  0  0
  5  6  2  0  0  0  0
  5 26  1  0  0  0  0
  6 24  1  0  0  0  0
  7  8  2  0  0  0  0
  7 11  1  0  0  0  0
  8  9  1  0  0  0  0
  8 14  1  0  0  0  0
  9 10  1  0  0  0  0
  9 17  2  0  0  0  0
 11 12  2  0  0  0  0
 11 18  1  0  0  0  0
 12 13  1  0  0  0  0
 12 21  1  0  0  0  0
 13 14  2  0  0  0  0
 14 15  1  0  0  0  0
 15 16  2  0  0  0  0
 15 29  1  0  0  0  0
 16 17  1  0  0  0  0
 16 35  1  0  0  0  0
 17 28  1  0  0  0  0
 18 19  2  0  0  0  0
 18 22  1  0  0  0  0
 19 20  1  0  0  0  0
 19 31  1  0  0  0  0
 20 21  2  0  0  0  0
 20 25  1  0  0  0  0
 21 30  1  0  0  0  0
 22 42  1  0  0  0  0
 23 43  1  0  0  0  0
 24 32  2  0  0  0  0
 24 33  1  0  0  0  0
 25 39  2  0  0  0  0
 25 40  1  0  0  0  0
 33 34  1  0  0  0  0
 34 56  1  0  0  0  0
 34 57  1  0  0  0  0
 34 58  1  0  0  0  0
 35 36  2  0  0  0  0
 35 37  1  0  0  0  0
 37 38  1  0  0  0  0
 38 47  1  0  0  0  0
 38 48  1  0  0  0  0
 38 49  1  0  0  0  0
 40 41  1  0  0  0  0
 41 44  1  0  0  0  0
 41 45  1  0  0  0  0
 41 46  1  0  0  0  0
 42 53  1  0  0  0  0
 42 54  1  0  0  0  0
 42 55  1  0  0  0  0
 43 50  1  0  0  0  0
 43 51  1  0  0  0  0
 43 52  1  0  0  0  0
 59 60  2  0  0  0  0
 59 64  1  0  0  0  0
 59 85  1  0  0  0  0
 60 61  1  0  0  0  0
 60 81  1  0  0  0  0
 61 62  2  0  0  0  0
 61 65  1  0  0  0  0
 62 63  1  0  0  0  0
 62 68  1  0  0  0  0
 63 64  2  0  0  0  0
 63 84  1  0  0  0  0
 64 82  1  0  0  0  0
 65 66  2  0  0  0  0
 65 69  1  0  0  0  0
 66 67  1  0  0  0  0
 66 72  1  0  0  0  0
 67 68  1  0  0  0  0
 67 75  2  0  0  0  0
 69 70  2  0  0  0  0
 69 76  1  0  0  0  0
 70 71  1  0  0  0  0
 70 79  1  0  0  0  0
 71 72  2  0  0  0  0
 72 73  1  0  0  0  0
 73 74  2  0  0  0  0
 73 87  1  0  0  0  0
 74 75  1  0  0  0  0
 74 93  1  0  0  0  0
 75 86  1  0  0  0  0
 76 77  2  0  0  0  0
 76 80  1  0  0  0  0
 77 78  1  0  0  0  0
 77 89  1  0  0  0  0
 78 79  2  0  0  0  0
 78 83  1  0  0  0  0
 79 88  1  0  0  0  0
 80100  1  0  0  0  0
 81101  1  0  0  0  0
 82 90  2  0  0  0  0
 82 91  1  0  0  0  0
 83 97  2  0  0  0  0
 83 98  1  0  0  0  0
 91 92  1  0  0  0  0
 92114  1  0  0  0  0
 92115  1  0  0  0  0
 92116  1  0  0  0  0
 93 94  2  0  0  0  0
 93 95  1  0  0  0  0
 95 96  1  0  0  0  0
 96105  1  0  0  0  0
 96106  1  0  0  0  0
 96107  1  0  0  0  0
 98 99  1  0  0  0  0
 99102  1  0  0  0  0
 99103  1  0  0  0  0
 99104  1  0  0  0  0
100111  1  0  0  0  0
100112  1  0  0  0  0
100113  1  0  0  0  0
101108  1  0  0  0  0
101109  1  0  0  0  0
101110  1  0  0  0  0
M  END
