 xtb: 6.7.1 (edcfbbe)
          12022411503D

 58 62  0     0  0            999 V2000
   -2.5764    2.4604   -2.0876 C   0  0  0  0  0  0  0  0  0  0  0  0
   -2.2946    1.3230   -1.3681 C   0  0  0  0  0  0  0  0  0  0  0  0
   -1.2638    1.3161   -0.4038 C   0  0  0  0  0  0  0  0  0  0  0  0
   -0.3504    2.4244   -0.3789 C   0  0  0  0  0  0  0  0  0  0  0  0
   -0.6952    3.5933   -1.0932 C   0  0  0  0  0  0  0  0  0  0  0  0
   -1.8090    3.6269   -1.9025 C   0  0  0  0  0  0  0  0  0  0  0  0
   -0.9964    0.2588    0.5213 C   0  0  0  0  0  0  0  0  0  0  0  0
    0.3143    0.1641    1.0124 C   0  0  0  0  0  0  0  0  0  0  0  0
    1.2124    1.2650    0.8446 C   0  0  0  0  0  0  0  0  0  0  0  0
    0.8120    2.4106    0.2691 N   0  0  0  0  0  0  0  0  0  0  0  0
   -1.9266   -0.7240    0.9777 C   0  0  0  0  0  0  0  0  0  0  0  0
   -1.3709   -1.9347    1.5052 C   0  0  0  0  0  0  0  0  0  0  0  0
   -0.0784   -2.0940    1.7843 N   0  0  0  0  0  0  0  0  0  0  0  0
    0.7372   -1.0328    1.6728 C   0  0  0  0  0  0  0  0  0  0  0  0
    2.0534   -1.1026    2.1409 C   0  0  0  0  0  0  0  0  0  0  0  0
    2.9161   -0.0204    1.9857 C   0  0  0  0  0  0  0  0  0  0  0  0
    2.5102    1.1522    1.3536 C   0  0  0  0  0  0  0  0  0  0  0  0
   -3.3337   -0.5519    0.9843 C   0  0  0  0  0  0  0  0  0  0  0  0
   -4.1526   -1.6260    1.2459 C   0  0  0  0  0  0  0  0  0  0  0  0
   -3.5972   -2.8786    1.5822 C   0  0  0  0  0  0  0  0  0  0  0  0
   -2.2394   -3.0237    1.7459 C   0  0  0  0  0  0  0  0  0  0  0  0
   -3.7814    0.7255    0.8200 O   0  0  0  0  0  0  0  0  0  0  0  0
   -3.0430    0.1908   -1.6742 O   0  0  0  0  0  0  0  0  0  0  0  0
   -2.1288    4.8695   -2.6163 C   0  0  0  0  0  0  0  0  0  0  0  0
   -4.5296   -3.9888    1.8184 C   0  0  0  0  0  0  0  0  0  0  0  0
   -0.0489    4.4535   -1.0191 H   0  0  0  0  0  0  0  0  0  0  0  0
   -3.3796    2.4465   -2.8064 H   0  0  0  0  0  0  0  0  0  0  0  0
    3.1885    1.9800    1.2339 H   0  0  0  0  0  0  0  0  0  0  0  0
    2.3933   -1.9957    2.6391 H   0  0  0  0  0  0  0  0  0  0  0  0
   -1.8104   -3.9506    2.0879 H   0  0  0  0  0  0  0  0  0  0  0  0
   -5.2272   -1.5486    1.2243 H   0  0  0  0  0  0  0  0  0  0  0  0
   -1.4986    5.9015   -2.5597 O   0  0  0  0  0  0  0  0  0  0  0  0
   -3.2461    4.7676   -3.3798 O   0  0  0  0  0  0  0  0  0  0  0  0
   -3.6057    5.9383   -4.0846 C   0  0  0  0  0  0  0  0  0  0  0  0
    4.2812   -0.1552    2.5156 C   0  0  0  0  0  0  0  0  0  0  0  0
    4.7334   -1.1305    3.0738 O   0  0  0  0  0  0  0  0  0  0  0  0
    5.0369    0.9544    2.3230 O   0  0  0  0  0  0  0  0  0  0  0  0
    6.3581    0.8832    2.8156 C   0  0  0  0  0  0  0  0  0  0  0  0
   -5.7375   -3.9242    1.7367 O   0  0  0  0  0  0  0  0  0  0  0  0
   -3.9041   -5.1424    2.1489 O   0  0  0  0  0  0  0  0  0  0  0  0
   -4.7494   -6.2468    2.3969 C   0  0  0  0  0  0  0  0  0  0  0  0
   -5.1525    0.9325    0.6215 C   0  0  0  0  0  0  0  0  0  0  0  0
   -2.3018   -0.8869   -2.1920 C   0  0  0  0  0  0  0  0  0  0  0  0
   -4.1002   -7.0698    2.6876 H   0  0  0  0  0  0  0  0  0  0  0  0
   -5.3159   -6.5064    1.4984 H   0  0  0  0  0  0  0  0  0  0  0  0
   -5.4570   -6.0161    3.1977 H   0  0  0  0  0  0  0  0  0  0  0  0
    6.8196    1.8438    2.5963 H   0  0  0  0  0  0  0  0  0  0  0  0
    6.9077    0.0745    2.3261 H   0  0  0  0  0  0  0  0  0  0  0  0
    6.3565    0.6967    3.8930 H   0  0  0  0  0  0  0  0  0  0  0  0
   -3.0117   -1.7011   -2.3358 H   0  0  0  0  0  0  0  0  0  0  0  0
   -1.5128   -1.2205   -1.5117 H   0  0  0  0  0  0  0  0  0  0  0  0
   -1.8489   -0.6217   -3.1566 H   0  0  0  0  0  0  0  0  0  0  0  0
   -5.2609    1.9960    0.4104 H   0  0  0  0  0  0  0  0  0  0  0  0
   -5.7360    0.6770    1.5143 H   0  0  0  0  0  0  0  0  0  0  0  0
   -5.5196    0.3550   -0.2324 H   0  0  0  0  0  0  0  0  0  0  0  0
   -4.5055    5.6953   -4.6457 H   0  0  0  0  0  0  0  0  0  0  0  0
   -2.8020    6.2400   -4.7614 H   0  0  0  0  0  0  0  0  0  0  0  0
   -3.7985    6.7597   -3.3895 H   0  0  0  0  0  0  0  0  0  0  0  0
  1  2  4  0  0  0  0
  2  3  4  0  0  0  0
  3  4  1  0  0  0  0
  4  5  4  0  0  0  0
  1  6  4  0  0  0  0
  5  6  4  0  0  0  0
  3  7  1  0  0  0  0
  7  8  4  0  0  0  0
  8  9  1  0  0  0  0
  4 10  4  0  0  0  0
  9 10  4  0  0  0  0
  7 11  4  0  0  0  0
 11 12  4  0  0  0  0
 12 13  4  0  0  0  0
  8 14  1  0  0  0  0
 13 14  4  0  0  0  0
 14 15  4  0  0  0  0
 15 16  4  0  0  0  0
  9 17  4  0  0  0  0
 16 17  4  0  0  0  0
 11 18  4  0  0  0  0
 18 19  4  0  0  0  0
 19 20  4  0  0  0  0
 12 21  4  0  0  0  0
 20 21  4  0  0  0  0
 18 22  1  0  0  0  0
  2 23  1  0  0  0  0
  6 24  1  0  0  0  0
 20 25  1  0  0  0  0
  5 26  1  0  0  0  0
  1 27  1  0  0  0  0
 17 28  1  0  0  0  0
 15 29  1  0  0  0  0
 21 30  1  0  0  0  0
 19 31  1  0  0  0  0
 24 32  2  0  0  0  0
 24 33  1  0  0  0  0
 33 34  1  0  0  0  0
 16 35  1  0  0  0  0
 35 36  2  0  0  0  0
 35 37  1  0  0  0  0
 37 38  1  0  0  0  0
 25 39  2  0  0  0  0
 25 40  1  0  0  0  0
 40 41  1  0  0  0  0
 22 42  1  0  0  0  0
 23 43  1  0  0  0  0
 41 44  1  0  0  0  0
 41 45  1  0  0  0  0
 41 46  1  0  0  0  0
 38 47  1  0  0  0  0
 38 48  1  0  0  0  0
 38 49  1  0  0  0  0
 43 50  1  0  0  0  0
 43 51  1  0  0  0  0
 43 52  1  0  0  0  0
 42 53  1  0  0  0  0
 42 54  1  0  0  0  0
 42 55  1  0  0  0  0
 34 56  1  0  0  0  0
 34 57  1  0  0  0  0
 34 58  1  0  0  0  0
M  CHG  1   1  -1
M  END
