 energy: -107.237286919248 gnorm: 0.000218201484 xtb: 6.7.1 (edcfbbe)
          02242515313D

 58 62  0     0  0            999 V2000
   -2.5768    2.4537   -2.0829 C   0  0  0  0  0  0  0  0  0  0  0  0
   -2.2932    1.3196   -1.3597 C   0  0  0  0  0  0  0  0  0  0  0  0
   -1.2600    1.3168   -0.3981 C   0  0  0  0  0  0  0  0  0  0  0  0
   -0.3451    2.4236   -0.3806 C   0  0  0  0  0  0  0  0  0  0  0  0
   -0.6898    3.5890   -1.1012 C   0  0  0  0  0  0  0  0  0  0  0  0
   -1.8070    3.6201   -1.9061 C   0  0  0  0  0  0  0  0  0  0  0  0
   -0.9926    0.2624    0.5298 C   0  0  0  0  0  0  0  0  0  0  0  0
    0.3182    0.1676    1.0200 C   0  0  0  0  0  0  0  0  0  0  0  0
    1.2171    1.2672    0.8474 C   0  0  0  0  0  0  0  0  0  0  0  0
    0.8181    2.4107    0.2663 N   0  0  0  0  0  0  0  0  0  0  0  0
   -1.9238   -0.7182    0.9880 C   0  0  0  0  0  0  0  0  0  0  0  0
   -1.3696   -1.9293    1.5159 C   0  0  0  0  0  0  0  0  0  0  0  0
   -0.0773   -2.0885    1.7966 N   0  0  0  0  0  0  0  0  0  0  0  0
    0.7392   -1.0281    1.6838 C   0  0  0  0  0  0  0  0  0  0  0  0
    2.0550   -1.0972    2.1530 C   0  0  0  0  0  0  0  0  0  0  0  0
    2.9186   -0.0161    1.9943 C   0  0  0  0  0  0  0  0  0  0  0  0
    2.5145    1.1547    1.3577 C   0  0  0  0  0  0  0  0  0  0  0  0
   -3.3305   -0.5435    0.9941 C   0  0  0  0  0  0  0  0  0  0  0  0
   -4.1508   -1.6172    1.2520 C   0  0  0  0  0  0  0  0  0  0  0  0
   -3.5968   -2.8713    1.5854 C   0  0  0  0  0  0  0  0  0  0  0  0
   -2.2397   -3.0181    1.7531 C   0  0  0  0  0  0  0  0  0  0  0  0
   -3.7760    0.7350    0.8328 O   0  0  0  0  0  0  0  0  0  0  0  0
   -3.0397    0.1842   -1.6595 O   0  0  0  0  0  0  0  0  0  0  0  0
   -2.1314    4.8583   -2.6257 C   0  0  0  0  0  0  0  0  0  0  0  0
   -4.5322   -3.9809    1.8123 C   0  0  0  0  0  0  0  0  0  0  0  0
   -0.0416    4.4484   -1.0343 H   0  0  0  0  0  0  0  0  0  0  0  0
   -3.3825    2.4376   -2.7987 H   0  0  0  0  0  0  0  0  0  0  0  0
    3.1940    1.9811    1.2356 H   0  0  0  0  0  0  0  0  0  0  0  0
    2.3944   -1.9889    2.6541 H   0  0  0  0  0  0  0  0  0  0  0  0
   -1.8127   -3.9462    2.0947 H   0  0  0  0  0  0  0  0  0  0  0  0
   -5.2252   -1.5395    1.2281 H   0  0  0  0  0  0  0  0  0  0  0  0
   -1.4975    5.8888   -2.5866 O   0  0  0  0  0  0  0  0  0  0  0  0
   -3.2590    4.7522   -3.3732 O   0  0  0  0  0  0  0  0  0  0  0  0
   -3.6274    5.9161   -4.0844 C   0  0  0  0  0  0  0  0  0  0  0  0
    4.2834   -0.1512    2.5250 C   0  0  0  0  0  0  0  0  0  0  0  0
    4.7311   -1.1223    3.0942 O   0  0  0  0  0  0  0  0  0  0  0  0
    5.0447    0.9521    2.3189 O   0  0  0  0  0  0  0  0  0  0  0  0
    6.3663    0.8790    2.8101 C   0  0  0  0  0  0  0  0  0  0  0  0
   -5.7402   -3.9101    1.7375 O   0  0  0  0  0  0  0  0  0  0  0  0
   -3.9105   -5.1420    2.1224 O   0  0  0  0  0  0  0  0  0  0  0  0
   -4.7609   -6.2458    2.3564 C   0  0  0  0  0  0  0  0  0  0  0  0
   -5.1468    0.9441    0.6346 C   0  0  0  0  0  0  0  0  0  0  0  0
   -2.2952   -0.8870   -2.1858 C   0  0  0  0  0  0  0  0  0  0  0  0
   -4.1138   -7.0825    2.6101 H   0  0  0  0  0  0  0  0  0  0  0  0
   -5.3482   -6.4740    1.4627 H   0  0  0  0  0  0  0  0  0  0  0  0
   -5.4499   -6.0319    3.1779 H   0  0  0  0  0  0  0  0  0  0  0  0
    6.8311    1.8365    2.5847 H   0  0  0  0  0  0  0  0  0  0  0  0
    6.9122    0.0654    2.3243 H   0  0  0  0  0  0  0  0  0  0  0  0
    6.3657    0.6984    3.8886 H   0  0  0  0  0  0  0  0  0  0  0  0
   -2.9997   -1.7066   -2.3251 H   0  0  0  0  0  0  0  0  0  0  0  0
   -1.4977   -1.2153   -1.5127 H   0  0  0  0  0  0  0  0  0  0  0  0
   -1.8524   -0.6163   -3.1537 H   0  0  0  0  0  0  0  0  0  0  0  0
   -5.2543    2.0086    0.4277 H   0  0  0  0  0  0  0  0  0  0  0  0
   -5.7307    0.6856    1.5263 H   0  0  0  0  0  0  0  0  0  0  0  0
   -5.5141    0.3703   -0.2216 H   0  0  0  0  0  0  0  0  0  0  0  0
   -4.5290    5.6647   -4.6389 H   0  0  0  0  0  0  0  0  0  0  0  0
   -2.8287    6.2166   -4.7677 H   0  0  0  0  0  0  0  0  0  0  0  0
   -3.8208    6.7416   -3.3944 H   0  0  0  0  0  0  0  0  0  0  0  0
  1  6  2  0  0  0  0
  1  2  1  0  0  0  0
  2  3  2  0  0  0  0
  3  7  1  0  0  0  0
  4  3  1  0  0  0  0
  4 10  1  0  0  0  0
  5  4  2  0  0  0  0
  6  5  1  0  0  0  0
  7 11  2  0  0  0  0
  7  8  1  0  0  0  0
  8 14  1  0  0  0  0
  9  8  2  0  0  0  0
  9 17  1  0  0  0  0
 10  9  1  0  0  0  0
 11 12  1  0  0  0  0
 12 21  1  0  0  0  0
 12 13  2  0  0  0  0
 14 13  1  0  0  0  0
 14 15  2  0  0  0  0
 15 29  1  0  0  0  0
 16 15  1  0  0  0  0
 16 35  1  0  0  0  0
 17 16  2  0  0  0  0
 18 11  1  0  0  0  0
 18 19  2  0  0  0  0
 19 20  1  0  0  0  0
 20 21  2  0  0  0  0
 20 25  1  0  0  0  0
 21 30  1  0  0  0  0
 22 18  1  0  0  0  0
 23  2  1  0  0  0  0
 24  6  1  0  0  0  0
 25 40  1  0  0  0  0
 26  5  1  0  0  0  0
 27  1  1  0  0  0  0
 28 17  1  0  0  0  0
 31 19  1  0  0  0  0
 32 24  2  0  0  0  0
 33 34  1  0  0  0  0
 33 24  1  0  0  0  0
 34 57  1  0  0  0  0
 34 58  1  0  0  0  0
 35 36  2  0  0  0  0
 37 35  1  0  0  0  0
 38 37  1  0  0  0  0
 39 25  2  0  0  0  0
 41 44  1  0  0  0  0
 41 40  1  0  0  0  0
 42 54  1  0  0  0  0
 42 22  1  0  0  0  0
 43 23  1  0  0  0  0
 45 41  1  0  0  0  0
 46 41  1  0  0  0  0
 47 38  1  0  0  0  0
 48 38  1  0  0  0  0
 49 38  1  0  0  0  0
 50 43  1  0  0  0  0
 51 43  1  0  0  0  0
 52 43  1  0  0  0  0
 53 42  1  0  0  0  0
 55 42  1  0  0  0  0
 56 34  1  0  0  0  0
M  CHG  1   1  -1
M  END
