
 OpenBabel11212415513D

 58 62  0  0  0  0  0  0  0  0999 V2000
   -2.5934    2.7134   -2.0497 C   0  0  0  0  0  0  0  0  0  0  0  0
   -2.3849    1.5152   -1.3558 C   0  0  0  0  0  0  0  0  0  0  0  0
   -1.3006    1.3775   -0.4194 C   0  0  0  0  0  0  0  0  0  0  0  0
   -0.3526    2.4466   -0.4286 C   0  0  0  0  0  0  0  0  0  0  0  0
   -0.5771    3.6287   -1.1403 C   0  0  0  0  0  0  0  0  0  0  0  0
   -1.7160    3.7895   -1.9279 C   0  0  0  0  0  0  0  0  0  0  0  0
   -1.0346    0.2327    0.4459 C   0  0  0  0  0  0  0  0  0  0  0  0
    0.2914    0.1366    0.9737 C   0  0  0  0  0  0  0  0  0  0  0  0
    1.2019    1.2015    0.8414 C   0  0  0  0  0  0  0  0  0  0  0  0
    0.8306    2.3308    0.2110 N   0  0  0  0  0  0  0  0  0  0  0  0
   -1.9616   -0.8216    0.8454 C   0  0  0  0  0  0  0  0  0  0  0  0
   -1.4250   -1.9909    1.4653 C   0  0  0  0  0  0  0  0  0  0  0  0
   -0.1206   -2.0601    1.8057 N   0  0  0  0  0  0  0  0  0  0  0  0
    0.7225   -1.0244    1.6420 C   0  0  0  0  0  0  0  0  0  0  0  0
    2.0246   -1.1236    2.1453 C   0  0  0  0  0  0  0  0  0  0  0  0
    2.9237   -0.0543    2.0171 C   0  0  0  0  0  0  0  0  0  0  0  0
    2.4963    1.1114    1.3661 C   0  0  0  0  0  0  0  0  0  0  0  0
   -3.3942   -0.7544    0.7737 C   0  0  0  0  0  0  0  0  0  0  0  0
   -4.1800   -1.8751    1.1237 C   0  0  0  0  0  0  0  0  0  0  0  0
   -3.6042   -3.0501    1.6085 C   0  0  0  0  0  0  0  0  0  0  0  0
   -2.2268   -3.0824    1.8036 C   0  0  0  0  0  0  0  0  0  0  0  0
   -4.0100    0.4222    0.4859 O   0  0  0  0  0  0  0  0  0  0  0  0
   -3.1889    0.4946   -1.7372 O   0  0  0  0  0  0  0  0  0  0  0  0
   -1.9507    5.0454   -2.6847 C   0  0  0  0  0  0  0  0  0  0  0  0
   -4.4446   -4.2171    1.9822 C   0  0  0  0  0  0  0  0  0  0  0  0
    0.1616    4.4207   -1.0902 H   0  0  0  0  0  0  0  0  0  0  0  0
   -3.4344    2.7802   -2.7301 H   0  0  0  0  0  0  0  0  0  0  0  0
    3.1701    1.9524    1.2521 H   0  0  0  0  0  0  0  0  0  0  0  0
    2.3268   -2.0342    2.6495 H   0  0  0  0  0  0  0  0  0  0  0  0
   -1.7637   -3.9556    2.2489 H   0  0  0  0  0  0  0  0  0  0  0  0
   -5.2577   -1.8257    1.0532 H   0  0  0  0  0  0  0  0  0  0  0  0
   -1.1557    5.9722   -2.5954 O   0  0  0  0  0  0  0  0  0  0  0  0
   -3.0520    5.1633   -3.4715 O   0  0  0  0  0  0  0  0  0  0  0  0
   -3.3572    6.2890   -4.2067 C   0  0  0  0  0  0  0  0  0  0  0  0
    4.3015   -0.1496    2.5611 C   0  0  0  0  0  0  0  0  0  0  0  0
    4.6665   -1.1710    3.1289 O   0  0  0  0  0  0  0  0  0  0  0  0
    5.1539    0.8996    2.4265 O   0  0  0  0  0  0  0  0  0  0  0  0
    6.4494    0.9056    2.8980 C   0  0  0  0  0  0  0  0  0  0  0  0
   -5.6591   -4.1707    1.8345 O   0  0  0  0  0  0  0  0  0  0  0  0
   -3.8606   -5.3352    2.4870 O   0  0  0  0  0  0  0  0  0  0  0  0
   -4.5556   -6.4642    2.8652 C   0  0  0  0  0  0  0  0  0  0  0  0
   -5.3679    0.6726    0.4489 C   0  0  0  0  0  0  0  0  0  0  0  0
   -2.7183   -0.6430   -2.3638 C   0  0  0  0  0  0  0  0  0  0  0  0
   -3.8394   -7.2234    3.2411 H   0  0  0  0  0  0  0  0  0  0  0  0
   -5.1019   -6.8871    1.9951 H   0  0  0  0  0  0  0  0  0  0  0  0
   -5.2740   -6.2176    3.6761 H   0  0  0  0  0  0  0  0  0  0  0  0
    6.9203    1.8803    2.6557 H   0  0  0  0  0  0  0  0  0  0  0  0
    7.0362    0.0948    2.4156 H   0  0  0  0  0  0  0  0  0  0  0  0
    6.4561    0.7692    4.0007 H   0  0  0  0  0  0  0  0  0  0  0  0
   -3.5682   -1.3304   -2.5518 H   0  0  0  0  0  0  0  0  0  0  0  0
   -1.9626   -1.1714   -1.7519 H   0  0  0  0  0  0  0  0  0  0  0  0
   -2.2587   -0.3710   -3.3377 H   0  0  0  0  0  0  0  0  0  0  0  0
   -5.5303    1.7364    0.1801 H   0  0  0  0  0  0  0  0  0  0  0  0
   -5.8211    0.4874    1.4459 H   0  0  0  0  0  0  0  0  0  0  0  0
   -5.8548    0.0378   -0.3217 H   0  0  0  0  0  0  0  0  0  0  0  0
   -4.3058    6.1188   -4.7558 H   0  0  0  0  0  0  0  0  0  0  0  0
   -2.5503    6.4967   -4.9416 H   0  0  0  0  0  0  0  0  0  0  0  0
   -3.4856    7.1630   -3.5328 H   0  0  0  0  0  0  0  0  0  0  0  0
  1  6  2  0  0  0  0
  1  2  1  0  0  0  0
  2  3  2  0  0  0  0
  3  7  1  0  0  0  0
  4  3  1  0  0  0  0
  4 10  1  0  0  0  0
  5  4  2  0  0  0  0
  6  5  1  0  0  0  0
  7 11  2  0  0  0  0
  7  8  1  0  0  0  0
  8 14  1  0  0  0  0
  9  8  2  0  0  0  0
  9 17  1  0  0  0  0
 10  9  1  0  0  0  0
 11 12  1  0  0  0  0
 12 21  1  0  0  0  0
 12 13  2  0  0  0  0
 14 13  1  0  0  0  0
 14 15  2  0  0  0  0
 15 29  1  0  0  0  0
 16 15  1  0  0  0  0
 16 35  1  0  0  0  0
 17 16  2  0  0  0  0
 18 11  1  0  0  0  0
 18 19  2  0  0  0  0
 19 20  1  0  0  0  0
 20 21  2  0  0  0  0
 20 25  1  0  0  0  0
 21 30  1  0  0  0  0
 22 18  1  0  0  0  0
 23  2  1  0  0  0  0
 24  6  1  0  0  0  0
 25 40  1  0  0  0  0
 26  5  1  0  0  0  0
 27  1  1  0  0  0  0
 28 17  1  0  0  0  0
 31 19  1  0  0  0  0
 32 24  2  0  0  0  0
 33 34  1  0  0  0  0
 33 24  1  0  0  0  0
 34 57  1  0  0  0  0
 34 58  1  0  0  0  0
 35 36  2  0  0  0  0
 37 35  1  0  0  0  0
 38 37  1  0  0  0  0
 39 25  2  0  0  0  0
 41 44  1  0  0  0  0
 41 40  1  0  0  0  0
 42 54  1  0  0  0  0
 42 22  1  0  0  0  0
 43 23  1  0  0  0  0
 45 41  1  0  0  0  0
 46 41  1  0  0  0  0
 47 38  1  0  0  0  0
 48 38  1  0  0  0  0
 49 38  1  0  0  0  0
 50 43  1  0  0  0  0
 51 43  1  0  0  0  0
 52 43  1  0  0  0  0
 53 42  1  0  0  0  0
 55 42  1  0  0  0  0
 56 34  1  0  0  0  0
M  END
