58
MDL molfile
 C   -2.593400    2.713400   -2.049700
 C   -2.384900    1.515200   -1.355800
 C   -1.300600    1.377500   -0.419400
 C   -0.352600    2.446600   -0.428600
 C   -0.577100    3.628700   -1.140300
 C   -1.716000    3.789500   -1.927900
 C   -1.034600    0.232700    0.445900
 C    0.291400    0.136600    0.973700
 C    1.201900    1.201500    0.841400
 N    0.830600    2.330800    0.211000
 C   -1.961600   -0.821600    0.845400
 C   -1.425000   -1.990900    1.465300
 N   -0.120600   -2.060100    1.805700
 C    0.722500   -1.024400    1.642000
 C    2.024600   -1.123600    2.145300
 C    2.923700   -0.054300    2.017100
 C    2.496300    1.111400    1.366100
 C   -3.394200   -0.754400    0.773700
 C   -4.180000   -1.875100    1.123700
 C   -3.604200   -3.050100    1.608500
 C   -2.226800   -3.082400    1.803600
 O   -4.010000    0.422200    0.485900
 O   -3.188900    0.494600   -1.737200
 C   -1.950700    5.045400   -2.684700
 C   -4.444600   -4.217100    1.982200
 H    0.161600    4.420700   -1.090200
 H   -3.434400    2.780200   -2.730100
 H    3.170100    1.952400    1.252100
 H    2.326800   -2.034200    2.649500
 H   -1.763700   -3.955600    2.248900
 H   -5.257700   -1.825700    1.053200
 O   -1.155700    5.972200   -2.595400
 O   -3.052000    5.163300   -3.471500
 C   -3.357200    6.289000   -4.206700
 C    4.301500   -0.149600    2.561100
 O    4.666500   -1.171000    3.128900
 O    5.153900    0.899600    2.426500
 C    6.449400    0.905600    2.898000
 O   -5.659100   -4.170700    1.834500
 O   -3.860600   -5.335200    2.487000
 C   -4.555600   -6.464200    2.865200
 C   -5.367900    0.672600    0.448900
 C   -2.718300   -0.643000   -2.363800
 H   -3.839400   -7.223400    3.241100
 H   -5.101900   -6.887100    1.995100
 H   -5.274000   -6.217600    3.676100
 H    6.920300    1.880300    2.655700
 H    7.036200    0.094800    2.415600
 H    6.456100    0.769200    4.000700
 H   -3.568200   -1.330400   -2.551800
 H   -1.962600   -1.171400   -1.751900
 H   -2.258700   -0.371000   -3.337700
 H   -5.530300    1.736400    0.180100
 H   -5.821100    0.487400    1.445900
 H   -5.854800    0.037800   -0.321700
 H   -4.305800    6.118800   -4.755800
 H   -2.550300    6.496700   -4.941600
 H   -3.485600    7.163000   -3.532800
