 xtb: 6.7.1 (edcfbbe)
          12022411503D

 58 62  0     0  0            999 V2000
   -2.5673    2.5175   -2.1063 C   0  0  0  0  0  0  0  0  0  0  0  0
   -2.2795    1.3251   -1.4579 C   0  0  0  0  0  0  0  0  0  0  0  0
   -1.2590    1.2983   -0.4821 C   0  0  0  0  0  0  0  0  0  0  0  0
   -0.3460    2.4179   -0.4307 C   0  0  0  0  0  0  0  0  0  0  0  0
   -0.6729    3.6167   -1.1129 C   0  0  0  0  0  0  0  0  0  0  0  0
   -1.7963    3.6733   -1.8996 C   0  0  0  0  0  0  0  0  0  0  0  0
   -0.9973    0.2262    0.4279 C   0  0  0  0  0  0  0  0  0  0  0  0
    0.3085    0.1429    0.9425 C   0  0  0  0  0  0  0  0  0  0  0  0
    1.2108    1.2311    0.7703 C   0  0  0  0  0  0  0  0  0  0  0  0
    0.8284    2.3583    0.1757 N   0  0  0  0  0  0  0  0  0  0  0  0
   -1.9241   -0.7598    0.8831 C   0  0  0  0  0  0  0  0  0  0  0  0
   -1.3652   -1.9593    1.4592 C   0  0  0  0  0  0  0  0  0  0  0  0
   -0.0907   -2.0670    1.7964 N   0  0  0  0  0  0  0  0  0  0  0  0
    0.7225   -1.0240    1.6457 C   0  0  0  0  0  0  0  0  0  0  0  0
    2.0476   -1.0950    2.1227 C   0  0  0  0  0  0  0  0  0  0  0  0
    2.9149   -0.0188    1.9697 C   0  0  0  0  0  0  0  0  0  0  0  0
    2.5071    1.1407    1.3223 C   0  0  0  0  0  0  0  0  0  0  0  0
   -3.3343   -0.5977    0.8896 C   0  0  0  0  0  0  0  0  0  0  0  0
   -4.1231   -1.7078    1.1742 C   0  0  0  0  0  0  0  0  0  0  0  0
   -3.5634   -2.9330    1.5724 C   0  0  0  0  0  0  0  0  0  0  0  0
   -2.2103   -3.0621    1.7533 C   0  0  0  0  0  0  0  0  0  0  0  0
   -3.8069    0.6315    0.6735 O   0  0  0  0  0  0  0  0  0  0  0  0
   -3.0223    0.2326   -1.7971 O   0  0  0  0  0  0  0  0  0  0  0  0
   -2.1142    4.9648   -2.5972 C   0  0  0  0  0  0  0  0  0  0  0  0
   -4.5272   -4.0534    1.8427 C   0  0  0  0  0  0  0  0  0  0  0  0
   -0.0117    4.4657   -1.0306 H   0  0  0  0  0  0  0  0  0  0  0  0
   -3.3937    2.5414   -2.8003 H   0  0  0  0  0  0  0  0  0  0  0  0
    3.1675    1.9903    1.2359 H   0  0  0  0  0  0  0  0  0  0  0  0
    2.3904   -1.9948    2.6146 H   0  0  0  0  0  0  0  0  0  0  0  0
   -1.7670   -3.9594    2.1512 H   0  0  0  0  0  0  0  0  0  0  0  0
   -5.1996   -1.6652    1.1022 H   0  0  0  0  0  0  0  0  0  0  0  0
   -1.4462    5.9555   -2.4703 O   0  0  0  0  0  0  0  0  0  0  0  0
   -3.2013    4.8709   -3.3549 O   0  0  0  0  0  0  0  0  0  0  0  0
   -3.5730    6.0503   -4.0651 C   0  0  0  0  0  0  0  0  0  0  0  0
    4.3058   -0.1666    2.5325 C   0  0  0  0  0  0  0  0  0  0  0  0
    4.6903   -1.1844    3.0413 O   0  0  0  0  0  0  0  0  0  0  0  0
    5.0194    0.9400    2.3899 O   0  0  0  0  0  0  0  0  0  0  0  0
    6.3538    0.8984    2.8943 C   0  0  0  0  0  0  0  0  0  0  0  0
   -5.7089   -3.9538    1.6375 O   0  0  0  0  0  0  0  0  0  0  0  0
   -3.9223   -5.1309    2.3193 O   0  0  0  0  0  0  0  0  0  0  0  0
   -4.7612   -6.2455    2.6162 C   0  0  0  0  0  0  0  0  0  0  0  0
   -5.2064    0.8508    0.6704 C   0  0  0  0  0  0  0  0  0  0  0  0
   -2.3257   -0.8784   -2.3388 C   0  0  0  0  0  0  0  0  0  0  0  0
   -4.1053   -7.0251    2.9929 H   0  0  0  0  0  0  0  0  0  0  0  0
   -5.2797   -6.5785    1.7157 H   0  0  0  0  0  0  0  0  0  0  0  0
   -5.5026   -5.9691    3.3676 H   0  0  0  0  0  0  0  0  0  0  0  0
    6.7952    1.8629    2.6600 H   0  0  0  0  0  0  0  0  0  0  0  0
    6.9118    0.0910    2.4176 H   0  0  0  0  0  0  0  0  0  0  0  0
    6.3434    0.7311    3.9724 H   0  0  0  0  0  0  0  0  0  0  0  0
   -3.0840   -1.6350   -2.5281 H   0  0  0  0  0  0  0  0  0  0  0  0
   -1.5738   -1.2820   -1.6554 H   0  0  0  0  0  0  0  0  0  0  0  0
   -1.8441   -0.6047   -3.2820 H   0  0  0  0  0  0  0  0  0  0  0  0
   -5.3292    1.9209    0.5168 H   0  0  0  0  0  0  0  0  0  0  0  0
   -5.6559    0.5647    1.6240 H   0  0  0  0  0  0  0  0  0  0  0  0
   -5.6844    0.3083   -0.1479 H   0  0  0  0  0  0  0  0  0  0  0  0
   -4.4878    5.8073   -4.5981 H   0  0  0  0  0  0  0  0  0  0  0  0
   -2.7835    6.3326   -4.7635 H   0  0  0  0  0  0  0  0  0  0  0  0
   -3.7376    6.8743   -3.3691 H   0  0  0  0  0  0  0  0  0  0  0  0
  1  2  4  0  0  0  0
  2  3  4  0  0  0  0
  3  4  1  0  0  0  0
  4  5  4  0  0  0  0
  1  6  4  0  0  0  0
  5  6  2  0  0  0  0
  3  7  4  0  0  0  0
  7  8  4  0  0  0  0
  8  9  1  0  0  0  0
  4 10  4  0  0  0  0
  9 10  4  0  0  0  0
  7 11  4  0  0  0  0
 11 12  1  0  0  0  0
 12 13  4  0  0  0  0
  8 14  1  0  0  0  0
 13 14  4  0  0  0  0
 14 15  4  0  0  0  0
 15 16  4  0  0  0  0
  9 17  4  0  0  0  0
 16 17  4  0  0  0  0
 11 18  4  0  0  0  0
 18 19  4  0  0  0  0
 19 20  4  0  0  0  0
 12 21  4  0  0  0  0
 20 21  4  0  0  0  0
 18 22  1  0  0  0  0
  2 23  1  0  0  0  0
  6 24  1  0  0  0  0
 20 25  1  0  0  0  0
  5 26  1  0  0  0  0
  1 27  1  0  0  0  0
 17 28  1  0  0  0  0
 15 29  1  0  0  0  0
 21 30  1  0  0  0  0
 19 31  1  0  0  0  0
 24 32  2  0  0  0  0
 24 33  1  0  0  0  0
 33 34  1  0  0  0  0
 16 35  1  0  0  0  0
 35 36  2  0  0  0  0
 35 37  1  0  0  0  0
 37 38  1  0  0  0  0
 25 39  2  0  0  0  0
 25 40  1  0  0  0  0
 40 41  1  0  0  0  0
 22 42  1  0  0  0  0
 23 43  1  0  0  0  0
 41 44  1  0  0  0  0
 41 45  1  0  0  0  0
 41 46  1  0  0  0  0
 38 47  1  0  0  0  0
 38 48  1  0  0  0  0
 38 49  1  0  0  0  0
 43 50  1  0  0  0  0
 43 51  1  0  0  0  0
 43 52  1  0  0  0  0
 42 53  1  0  0  0  0
 42 54  1  0  0  0  0
 42 55  1  0  0  0  0
 34 56  1  0  0  0  0
 34 57  1  0  0  0  0
 34 58  1  0  0  0  0
M  CHG  1   1   1
M  END
