 energy: -23.095936196789 gnorm: 0.000558228667 xtb: 6.7.1 (edcfbbe)
          02242515313D

116124  0     0  0            999 V2000
   -2.4830    2.6238   -1.9189 C   0  0  0  0  0  0  0  0  0  0  0  0
   -2.1850    1.3992   -1.3362 C   0  0  0  0  0  0  0  0  0  0  0  0
   -1.3399    1.3849   -0.1736 C   0  0  0  0  0  0  0  0  0  0  0  0
   -0.5734    2.5481    0.1244 C   0  0  0  0  0  0  0  0  0  0  0  0
   -0.9168    3.7533   -0.5086 C   0  0  0  0  0  0  0  0  0  0  0  0
   -1.8839    3.7998   -1.4864 C   0  0  0  0  0  0  0  0  0  0  0  0
   -1.1582    0.2427    0.6675 C   0  0  0  0  0  0  0  0  0  0  0  0
    0.0252    0.1939    1.4082 C   0  0  0  0  0  0  0  0  0  0  0  0
    0.8418    1.3559    1.5014 C   0  0  0  0  0  0  0  0  0  0  0  0
    0.4970    2.5368    0.9507 N   0  0  0  0  0  0  0  0  0  0  0  0
   -2.0622   -0.8508    0.8356 C   0  0  0  0  0  0  0  0  0  0  0  0
   -1.5474   -2.0588    1.3853 C   0  0  0  0  0  0  0  0  0  0  0  0
   -0.3334   -2.1449    1.9777 N   0  0  0  0  0  0  0  0  0  0  0  0
    0.4015   -1.0172    2.0556 C   0  0  0  0  0  0  0  0  0  0  0  0
    1.6062   -1.0335    2.7638 C   0  0  0  0  0  0  0  0  0  0  0  0
    2.4124    0.0865    2.8414 C   0  0  0  0  0  0  0  0  0  0  0  0
    2.0292    1.2659    2.2312 C   0  0  0  0  0  0  0  0  0  0  0  0
   -3.4729   -0.7327    0.6034 C   0  0  0  0  0  0  0  0  0  0  0  0
   -4.2460   -1.8846    0.6576 C   0  0  0  0  0  0  0  0  0  0  0  0
   -3.7047   -3.1051    1.0424 C   0  0  0  0  0  0  0  0  0  0  0  0
   -2.3866   -3.1821    1.4248 C   0  0  0  0  0  0  0  0  0  0  0  0
   -4.0049    0.5388    0.4330 O   0  0  0  0  0  0  0  0  0  0  0  0
   -2.6824    0.2405   -1.9621 O   0  0  0  0  0  0  0  0  0  0  0  0
   -2.2533    5.0909   -2.1098 C   0  0  0  0  0  0  0  0  0  0  0  0
   -4.5775   -4.2942    1.1396 C   0  0  0  0  0  0  0  0  0  0  0  0
   -0.4291    4.6624   -0.2021 H   0  0  0  0  0  0  0  0  0  0  0  0
   -3.1580    2.6524   -2.7542 H   0  0  0  0  0  0  0  0  0  0  0  0
    2.6616    2.1305    2.3169 H   0  0  0  0  0  0  0  0  0  0  0  0
    1.9200   -1.9362    3.2557 H   0  0  0  0  0  0  0  0  0  0  0  0
   -2.0037   -4.1111    1.8056 H   0  0  0  0  0  0  0  0  0  0  0  0
   -5.2979   -1.8513    0.4462 H   0  0  0  0  0  0  0  0  0  0  0  0
   -2.0510    6.1284   -1.5088 O   0  0  0  0  0  0  0  0  0  0  0  0
   -2.8217    5.0277   -3.3497 O   0  0  0  0  0  0  0  0  0  0  0  0
   -3.0683    6.3144   -3.8150 C   0  0  0  0  0  0  0  0  0  0  0  0
    3.6933    0.0189    3.5731 C   0  0  0  0  0  0  0  0  0  0  0  0
    3.9631   -0.9708    4.2257 O   0  0  0  0  0  0  0  0  0  0  0  0
    4.5101    1.1075    3.4620 O   0  0  0  0  0  0  0  0  0  0  0  0
    5.6466    0.9117    4.2332 C   0  0  0  0  0  0  0  0  0  0  0  0
   -5.7407   -4.2188    0.7936 O   0  0  0  0  0  0  0  0  0  0  0  0
   -4.0025   -5.4271    1.6395 O   0  0  0  0  0  0  0  0  0  0  0  0
   -4.9515   -6.4415    1.6936 C   0  0  0  0  0  0  0  0  0  0  0  0
   -5.3729    0.5835    0.1186 C   0  0  0  0  0  0  0  0  0  0  0  0
   -1.6927   -0.7108   -2.2953 C   0  0  0  0  0  0  0  0  0  0  0  0
   -4.4888   -7.3424    2.1024 H   0  0  0  0  0  0  0  0  0  0  0  0
   -5.3229   -6.6306    0.6833 H   0  0  0  0  0  0  0  0  0  0  0  0
   -5.7769   -6.1170    2.3324 H   0  0  0  0  0  0  0  0  0  0  0  0
    6.3224    1.7592    4.1006 H   0  0  0  0  0  0  0  0  0  0  0  0
    6.1302   -0.0189    3.9249 H   0  0  0  0  0  0  0  0  0  0  0  0
    5.3318    0.8361    5.2756 H   0  0  0  0  0  0  0  0  0  0  0  0
   -2.1721   -1.5405   -2.8157 H   0  0  0  0  0  0  0  0  0  0  0  0
   -1.2029   -1.0837   -1.3973 H   0  0  0  0  0  0  0  0  0  0  0  0
   -0.9554   -0.2460   -2.9509 H   0  0  0  0  0  0  0  0  0  0  0  0
   -5.6481    1.6269   -0.0417 H   0  0  0  0  0  0  0  0  0  0  0  0
   -5.9569    0.1829    0.9483 H   0  0  0  0  0  0  0  0  0  0  0  0
   -5.5537    0.0209   -0.7988 H   0  0  0  0  0  0  0  0  0  0  0  0
   -3.5083    6.2552   -4.8128 H   0  0  0  0  0  0  0  0  0  0  0  0
   -2.1229    6.8617   -3.8515 H   0  0  0  0  0  0  0  0  0  0  0  0
   -3.7545    6.8144   -3.1273 H   0  0  0  0  0  0  0  0  0  0  0  0
   -2.7280    2.1359    3.5354 C   0  0  0  0  0  0  0  0  0  0  0  0
   -2.4018    1.0708    4.3679 C   0  0  0  0  0  0  0  0  0  0  0  0
   -1.1909    1.1427    5.1423 C   0  0  0  0  0  0  0  0  0  0  0  0
   -0.2393    2.1517    4.8144 C   0  0  0  0  0  0  0  0  0  0  0  0
   -0.6240    3.1813    3.9437 C   0  0  0  0  0  0  0  0  0  0  0  0
   -1.8580    3.2001    3.3419 C   0  0  0  0  0  0  0  0  0  0  0  0
   -0.8334    0.2172    6.1753 C   0  0  0  0  0  0  0  0  0  0  0  0
    0.5270    0.1306    6.4972 C   0  0  0  0  0  0  0  0  0  0  0  0
    1.4279    1.1327    6.0404 C   0  0  0  0  0  0  0  0  0  0  0  0
    1.0343    2.1630    5.2690 N   0  0  0  0  0  0  0  0  0  0  0  0
   -1.7100   -0.6216    6.9361 C   0  0  0  0  0  0  0  0  0  0  0  0
   -1.1409   -1.7484    7.5961 C   0  0  0  0  0  0  0  0  0  0  0  0
    0.1896   -1.9265    7.7516 N   0  0  0  0  0  0  0  0  0  0  0  0
    0.9956   -0.9420    7.3084 C   0  0  0  0  0  0  0  0  0  0  0  0
    2.3520   -0.9720    7.6453 C   0  0  0  0  0  0  0  0  0  0  0  0
    3.2220    0.0248    7.2465 C   0  0  0  0  0  0  0  0  0  0  0  0
    2.7616    1.0639    6.4574 C   0  0  0  0  0  0  0  0  0  0  0  0
   -3.1031   -0.3350    7.1336 C   0  0  0  0  0  0  0  0  0  0  0  0
   -3.9029   -1.3173    7.7048 C   0  0  0  0  0  0  0  0  0  0  0  0
   -3.3638   -2.5023    8.1903 C   0  0  0  0  0  0  0  0  0  0  0  0
   -2.0034   -2.6930    8.1696 C   0  0  0  0  0  0  0  0  0  0  0  0
   -3.5679    0.9356    6.8176 O   0  0  0  0  0  0  0  0  0  0  0  0
   -3.2641   -0.0412    4.3391 O   0  0  0  0  0  0  0  0  0  0  0  0
   -2.2048    4.3259    2.4470 C   0  0  0  0  0  0  0  0  0  0  0  0
   -4.2455   -3.5253    8.7928 C   0  0  0  0  0  0  0  0  0  0  0  0
    0.0704    3.9725    3.7249 H   0  0  0  0  0  0  0  0  0  0  0  0
   -3.6469    2.0992    2.9797 H   0  0  0  0  0  0  0  0  0  0  0  0
    3.4407    1.8387    6.1540 H   0  0  0  0  0  0  0  0  0  0  0  0
    2.7277   -1.7746    8.2540 H   0  0  0  0  0  0  0  0  0  0  0  0
   -1.5899   -3.5761    8.6215 H   0  0  0  0  0  0  0  0  0  0  0  0
   -4.9599   -1.1693    7.8185 H   0  0  0  0  0  0  0  0  0  0  0  0
   -1.3800    5.1958    2.2416 O   0  0  0  0  0  0  0  0  0  0  0  0
   -3.4515    4.3219    1.8912 O   0  0  0  0  0  0  0  0  0  0  0  0
   -3.6103    5.4599    1.1077 C   0  0  0  0  0  0  0  0  0  0  0  0
    4.6323   -0.0303    7.6953 C   0  0  0  0  0  0  0  0  0  0  0  0
    4.9835   -0.9196    8.4469 O   0  0  0  0  0  0  0  0  0  0  0  0
    5.4701    0.9467    7.2391 O   0  0  0  0  0  0  0  0  0  0  0  0
    6.7352    0.7581    7.7856 C   0  0  0  0  0  0  0  0  0  0  0  0
   -5.4464   -3.3402    8.8353 O   0  0  0  0  0  0  0  0  0  0  0  0
   -3.6277   -4.6439    9.2748 O   0  0  0  0  0  0  0  0  0  0  0  0
   -4.5773   -5.5028    9.8164 C   0  0  0  0  0  0  0  0  0  0  0  0
   -4.9654    1.0817    6.8342 C   0  0  0  0  0  0  0  0  0  0  0  0
   -2.6196   -1.2704    4.1024 C   0  0  0  0  0  0  0  0  0  0  0  0
   -4.0771   -6.3990   10.1895 H   0  0  0  0  0  0  0  0  0  0  0  0
   -5.2976   -5.7678    9.0386 H   0  0  0  0  0  0  0  0  0  0  0  0
   -5.0914   -4.9895   10.6327 H   0  0  0  0  0  0  0  0  0  0  0  0
    7.4061    1.5398    7.4233 H   0  0  0  0  0  0  0  0  0  0  0  0
    7.1048   -0.2268    7.4892 H   0  0  0  0  0  0  0  0  0  0  0  0
    6.6567    0.8044    8.8746 H   0  0  0  0  0  0  0  0  0  0  0  0
   -3.2941   -1.9041    3.5269 H   0  0  0  0  0  0  0  0  0  0  0  0
   -2.3789   -1.7644    5.0419 H   0  0  0  0  0  0  0  0  0  0  0  0
   -1.7122   -1.0832    3.5302 H   0  0  0  0  0  0  0  0  0  0  0  0
   -5.2059    2.0828    6.4742 H   0  0  0  0  0  0  0  0  0  0  0  0
   -5.3391    0.9684    7.8527 H   0  0  0  0  0  0  0  0  0  0  0  0
   -5.4141    0.3449    6.1658 H   0  0  0  0  0  0  0  0  0  0  0  0
   -4.5797    5.4210    0.6068 H   0  0  0  0  0  0  0  0  0  0  0  0
   -2.8043    5.4925    0.3702 H   0  0  0  0  0  0  0  0  0  0  0  0
   -3.5488    6.3417    1.7500 H   0  0  0  0  0  0  0  0  0  0  0  0
  1  6  2  0  0  0  0
  1  2  1  0  0  0  0
  2  3  2  0  0  0  0
  3  7  1  0  0  0  0
  4  3  1  0  0  0  0
  4 10  1  0  0  0  0
  5  4  2  0  0  0  0
  6  5  1  0  0  0  0
  7 11  2  0  0  0  0
  7  8  1  0  0  0  0
  8 14  1  0  0  0  0
  9  8  2  0  0  0  0
  9 17  1  0  0  0  0
 10  9  1  0  0  0  0
 11 12  1  0  0  0  0
 12 21  1  0  0  0  0
 12 13  2  0  0  0  0
 14 13  1  0  0  0  0
 14 15  2  0  0  0  0
 15 29  1  0  0  0  0
 16 15  1  0  0  0  0
 16 35  1  0  0  0  0
 17 16  2  0  0  0  0
 18 11  1  0  0  0  0
 18 19  2  0  0  0  0
 19 20  1  0  0  0  0
 20 21  2  0  0  0  0
 20 25  1  0  0  0  0
 21 30  1  0  0  0  0
 22 18  1  0  0  0  0
 23  2  1  0  0  0  0
 24  6  1  0  0  0  0
 25 40  1  0  0  0  0
 26  5  1  0  0  0  0
 27  1  1  0  0  0  0
 28 17  1  0  0  0  0
 31 19  1  0  0  0  0
 32 24  2  0  0  0  0
 33 34  1  0  0  0  0
 33 24  1  0  0  0  0
 34 57  1  0  0  0  0
 34 58  1  0  0  0  0
 35 36  2  0  0  0  0
 37 35  1  0  0  0  0
 38 37  1  0  0  0  0
 39 25  2  0  0  0  0
 41 44  1  0  0  0  0
 41 40  1  0  0  0  0
 42 54  1  0  0  0  0
 42 22  1  0  0  0  0
 43 23  1  0  0  0  0
 45 41  1  0  0  0  0
 46 41  1  0  0  0  0
 47 38  1  0  0  0  0
 48 38  1  0  0  0  0
 49 38  1  0  0  0  0
 50 43  1  0  0  0  0
 51 43  1  0  0  0  0
 52 43  1  0  0  0  0
 53 42  1  0  0  0  0
 55 42  1  0  0  0  0
 56 34  1  0  0  0  0
 59 64  2  0  0  0  0
 59 60  1  0  0  0  0
 60 61  2  0  0  0  0
 61 65  1  0  0  0  0
 62 61  1  0  0  0  0
 62 68  1  0  0  0  0
 63 62  2  0  0  0  0
 64 63  1  0  0  0  0
 65 69  2  0  0  0  0
 65 66  1  0  0  0  0
 66 72  1  0  0  0  0
 67 66  2  0  0  0  0
 67 75  1  0  0  0  0
 68 67  1  0  0  0  0
 69 70  1  0  0  0  0
 70 79  1  0  0  0  0
 70 71  2  0  0  0  0
 72 71  1  0  0  0  0
 72 73  2  0  0  0  0
 73 87  1  0  0  0  0
 74 73  1  0  0  0  0
 74 93  1  0  0  0  0
 75 74  2  0  0  0  0
 76 69  1  0  0  0  0
 76 77  2  0  0  0  0
 77 78  1  0  0  0  0
 78 79  2  0  0  0  0
 78 83  1  0  0  0  0
 79 88  1  0  0  0  0
 80 76  1  0  0  0  0
 81 60  1  0  0  0  0
 82 64  1  0  0  0  0
 83 98  1  0  0  0  0
 84 63  1  0  0  0  0
 85 59  1  0  0  0  0
 86 75  1  0  0  0  0
 89 77  1  0  0  0  0
 90 82  2  0  0  0  0
 91 92  1  0  0  0  0
 91 82  1  0  0  0  0
 92115  1  0  0  0  0
 92116  1  0  0  0  0
 93 94  2  0  0  0  0
 95 93  1  0  0  0  0
 96 95  1  0  0  0  0
 97 83  2  0  0  0  0
 99102  1  0  0  0  0
 99 98  1  0  0  0  0
100112  1  0  0  0  0
100 80  1  0  0  0  0
101 81  1  0  0  0  0
103 99  1  0  0  0  0
104 99  1  0  0  0  0
105 96  1  0  0  0  0
106 96  1  0  0  0  0
107 96  1  0  0  0  0
108101  1  0  0  0  0
109101  1  0  0  0  0
110101  1  0  0  0  0
111100  1  0  0  0  0
113100  1  0  0  0  0
114 92  1  0  0  0  0
M  END
