 energy: -23.094593616862 gnorm: 0.000793426014 xtb: 6.7.1 (edcfbbe)
          12022411503D

116124  0     0  0            999 V2000
   -2.2425    2.7445   -0.9927 C   0  0  0  0  0  0  0  0  0  0  0  0
   -2.0071    1.5159   -0.3882 C   0  0  0  0  0  0  0  0  0  0  0  0
   -1.1324    1.4694    0.7516 C   0  0  0  0  0  0  0  0  0  0  0  0
   -0.2935    2.5917    1.0086 C   0  0  0  0  0  0  0  0  0  0  0  0
   -0.5543    3.7932    0.3319 C   0  0  0  0  0  0  0  0  0  0  0  0
   -1.5377    3.8827   -0.6237 C   0  0  0  0  0  0  0  0  0  0  0  0
   -0.9893    0.3276    1.6008 C   0  0  0  0  0  0  0  0  0  0  0  0
    0.1946    0.2378    2.3373 C   0  0  0  0  0  0  0  0  0  0  0  0
    1.0552    1.3681    2.4206 C   0  0  0  0  0  0  0  0  0  0  0  0
    0.7726    2.5487    1.8378 N   0  0  0  0  0  0  0  0  0  0  0  0
   -1.9293   -0.7347    1.7814 C   0  0  0  0  0  0  0  0  0  0  0  0
   -1.4478   -1.9626    2.3171 C   0  0  0  0  0  0  0  0  0  0  0  0
   -0.2392   -2.0878    2.9137 N   0  0  0  0  0  0  0  0  0  0  0  0
    0.5231   -0.9789    3.0018 C   0  0  0  0  0  0  0  0  0  0  0  0
    1.7085   -1.0223    3.7418 C   0  0  0  0  0  0  0  0  0  0  0  0
    2.5451    0.0744    3.8269 C   0  0  0  0  0  0  0  0  0  0  0  0
    2.2212    1.2508    3.1793 C   0  0  0  0  0  0  0  0  0  0  0  0
   -3.3392   -0.5701    1.5742 C   0  0  0  0  0  0  0  0  0  0  0  0
   -4.1502   -1.6948    1.6338 C   0  0  0  0  0  0  0  0  0  0  0  0
   -3.6431   -2.9361    1.9968 C   0  0  0  0  0  0  0  0  0  0  0  0
   -2.3209   -3.0603    2.3519 C   0  0  0  0  0  0  0  0  0  0  0  0
   -3.8302    0.7193    1.4241 O   0  0  0  0  0  0  0  0  0  0  0  0
   -2.5902    0.3784   -0.9798 O   0  0  0  0  0  0  0  0  0  0  0  0
   -1.7900    5.1714   -1.3035 C   0  0  0  0  0  0  0  0  0  0  0  0
   -4.5551   -4.0934    2.1156 C   0  0  0  0  0  0  0  0  0  0  0  0
    0.0160    4.6714    0.5783 H   0  0  0  0  0  0  0  0  0  0  0  0
   -2.9438    2.7995   -1.8046 H   0  0  0  0  0  0  0  0  0  0  0  0
    2.8804    2.0953    3.2645 H   0  0  0  0  0  0  0  0  0  0  0  0
    1.9764   -1.9241    4.2615 H   0  0  0  0  0  0  0  0  0  0  0  0
   -1.9635   -4.0044    2.7201 H   0  0  0  0  0  0  0  0  0  0  0  0
   -5.2043   -1.6237    1.4436 H   0  0  0  0  0  0  0  0  0  0  0  0
   -1.0391    6.1092   -1.1177 O   0  0  0  0  0  0  0  0  0  0  0  0
   -2.8813    5.2227   -2.1217 O   0  0  0  0  0  0  0  0  0  0  0  0
   -2.9588    6.4807   -2.7082 C   0  0  0  0  0  0  0  0  0  0  0  0
    3.7852    0.0012    4.6249 C   0  0  0  0  0  0  0  0  0  0  0  0
    3.9679   -0.9373    5.3759 O   0  0  0  0  0  0  0  0  0  0  0  0
    4.6607    1.0370    4.4632 O   0  0  0  0  0  0  0  0  0  0  0  0
    5.7237    0.8849    5.3411 C   0  0  0  0  0  0  0  0  0  0  0  0
   -5.7148   -3.9870    1.7656 O   0  0  0  0  0  0  0  0  0  0  0  0
   -4.0183   -5.2323    2.6439 O   0  0  0  0  0  0  0  0  0  0  0  0
   -5.0012   -6.2123    2.7224 C   0  0  0  0  0  0  0  0  0  0  0  0
   -5.2032    0.8168    1.1468 C   0  0  0  0  0  0  0  0  0  0  0  0
   -1.6641   -0.6213   -1.3527 C   0  0  0  0  0  0  0  0  0  0  0  0
   -4.5697   -7.1179    3.1540 H   0  0  0  0  0  0  0  0  0  0  0  0
   -5.3788   -6.4138    1.7168 H   0  0  0  0  0  0  0  0  0  0  0  0
   -5.8153   -5.8444    3.3520 H   0  0  0  0  0  0  0  0  0  0  0  0
    6.4786    1.6448    5.1279 H   0  0  0  0  0  0  0  0  0  0  0  0
    6.1429   -0.1183    5.2253 H   0  0  0  0  0  0  0  0  0  0  0  0
    5.3330    1.0113    6.3525 H   0  0  0  0  0  0  0  0  0  0  0  0
   -2.2138   -1.4597   -1.7820 H   0  0  0  0  0  0  0  0  0  0  0  0
   -1.1012   -0.9642   -0.4858 H   0  0  0  0  0  0  0  0  0  0  0  0
   -0.9793   -0.2137   -2.0973 H   0  0  0  0  0  0  0  0  0  0  0  0
   -5.4439    1.8732    1.0215 H   0  0  0  0  0  0  0  0  0  0  0  0
   -5.7809    0.4156    1.9805 H   0  0  0  0  0  0  0  0  0  0  0  0
   -5.4258    0.2847    0.2206 H   0  0  0  0  0  0  0  0  0  0  0  0
   -3.8308    6.5175   -3.3645 H   0  0  0  0  0  0  0  0  0  0  0  0
   -2.0459    6.6569   -3.2830 H   0  0  0  0  0  0  0  0  0  0  0  0
   -3.0445    7.2331   -1.9201 H   0  0  0  0  0  0  0  0  0  0  0  0
   -2.9884    1.6168    4.3732 C   0  0  0  0  0  0  0  0  0  0  0  0
   -2.5631    0.6496    5.2767 C   0  0  0  0  0  0  0  0  0  0  0  0
   -1.3681    0.8984    6.0396 C   0  0  0  0  0  0  0  0  0  0  0  0
   -0.4994    1.9447    5.6125 C   0  0  0  0  0  0  0  0  0  0  0  0
   -0.9742    2.8625    4.6633 C   0  0  0  0  0  0  0  0  0  0  0  0
   -2.2156    2.7340    4.0876 C   0  0  0  0  0  0  0  0  0  0  0  0
   -0.9540    0.1201    7.1677 C   0  0  0  0  0  0  0  0  0  0  0  0
    0.4037    0.1790    7.5050 C   0  0  0  0  0  0  0  0  0  0  0  0
    1.2332    1.1875    6.9375 C   0  0  0  0  0  0  0  0  0  0  0  0
    0.7697    2.0948    6.0565 N   0  0  0  0  0  0  0  0  0  0  0  0
   -1.7766   -0.6957    8.0097 C   0  0  0  0  0  0  0  0  0  0  0  0
   -1.1329   -1.6883    8.8027 C   0  0  0  0  0  0  0  0  0  0  0  0
    0.2038   -1.7368    8.9931 N   0  0  0  0  0  0  0  0  0  0  0  0
    0.9383   -0.7514    8.4411 C   0  0  0  0  0  0  0  0  0  0  0  0
    2.2856   -0.6340    8.7926 C   0  0  0  0  0  0  0  0  0  0  0  0
    3.0843    0.3726    8.2852 C   0  0  0  0  0  0  0  0  0  0  0  0
    2.5631    1.2684    7.3675 C   0  0  0  0  0  0  0  0  0  0  0  0
   -3.1940   -0.5110    8.1504 C   0  0  0  0  0  0  0  0  0  0  0  0
   -3.9228   -1.4880    8.8178 C   0  0  0  0  0  0  0  0  0  0  0  0
   -3.2990   -2.5582    9.4466 C   0  0  0  0  0  0  0  0  0  0  0  0
   -1.9274   -2.6316    9.4693 C   0  0  0  0  0  0  0  0  0  0  0  0
   -3.7588    0.6699    7.6847 O   0  0  0  0  0  0  0  0  0  0  0  0
   -3.3039   -0.5457    5.3316 O   0  0  0  0  0  0  0  0  0  0  0  0
   -2.6858    3.7628    3.1335 C   0  0  0  0  0  0  0  0  0  0  0  0
   -4.1077   -3.5785   10.1479 C   0  0  0  0  0  0  0  0  0  0  0  0
   -0.3509    3.6890    4.3723 H   0  0  0  0  0  0  0  0  0  0  0  0
   -3.9020    1.4586    3.8305 H   0  0  0  0  0  0  0  0  0  0  0  0
    3.1902    2.0491    6.9785 H   0  0  0  0  0  0  0  0  0  0  0  0
    2.7086   -1.3238    9.5007 H   0  0  0  0  0  0  0  0  0  0  0  0
   -1.4526   -3.4190   10.0259 H   0  0  0  0  0  0  0  0  0  0  0  0
   -4.9913   -1.4205    8.8962 H   0  0  0  0  0  0  0  0  0  0  0  0
   -1.9479    4.6855    2.8460 O   0  0  0  0  0  0  0  0  0  0  0  0
   -3.9476    3.6202    2.6317 O   0  0  0  0  0  0  0  0  0  0  0  0
   -4.2182    4.6696    1.7604 C   0  0  0  0  0  0  0  0  0  0  0  0
    4.4781    0.4892    8.7725 C   0  0  0  0  0  0  0  0  0  0  0  0
    4.8834   -0.2974    9.6070 O   0  0  0  0  0  0  0  0  0  0  0  0
    5.2376    1.5014    8.2605 O   0  0  0  0  0  0  0  0  0  0  0  0
    6.4871    1.4928    8.8719 C   0  0  0  0  0  0  0  0  0  0  0  0
   -5.3208   -3.4942   10.1472 O   0  0  0  0  0  0  0  0  0  0  0  0
   -3.4124   -4.5779   10.7664 O   0  0  0  0  0  0  0  0  0  0  0  0
   -4.3020   -5.4519   11.3807 C   0  0  0  0  0  0  0  0  0  0  0  0
   -5.1638    0.6890    7.6530 C   0  0  0  0  0  0  0  0  0  0  0  0
   -2.5211   -1.7105    5.2186 C   0  0  0  0  0  0  0  0  0  0  0  0
   -3.7391   -6.2528   11.8648 H   0  0  0  0  0  0  0  0  0  0  0  0
   -4.9711   -5.8652   10.6219 H   0  0  0  0  0  0  0  0  0  0  0  0
   -4.8848   -4.8983   12.1210 H   0  0  0  0  0  0  0  0  0  0  0  0
    7.0978    2.2974    8.4570 H   0  0  0  0  0  0  0  0  0  0  0  0
    6.9622    0.5247    8.6939 H   0  0  0  0  0  0  0  0  0  0  0  0
    6.3518    1.6386    9.9465 H   0  0  0  0  0  0  0  0  0  0  0  0
   -3.1361   -2.5002    4.7859 H   0  0  0  0  0  0  0  0  0  0  0  0
   -2.1646   -2.0310    6.1957 H   0  0  0  0  0  0  0  0  0  0  0  0
   -1.6779   -1.4919    4.5641 H   0  0  0  0  0  0  0  0  0  0  0  0
   -5.4795    1.6151    7.1710 H   0  0  0  0  0  0  0  0  0  0  0  0
   -5.5589    0.6617    8.6695 H   0  0  0  0  0  0  0  0  0  0  0  0
   -5.5243   -0.1585    7.0675 H   0  0  0  0  0  0  0  0  0  0  0  0
   -5.2516    4.5964    1.4155 H   0  0  0  0  0  0  0  0  0  0  0  0
   -3.5325    4.6079    0.9126 H   0  0  0  0  0  0  0  0  0  0  0  0
   -4.0617    5.6143    2.2876 H   0  0  0  0  0  0  0  0  0  0  0  0
  1  2  1  0  0  0  0
  1  6  2  0  0  0  0
  1 27  1  0  0  0  0
  2  3  2  0  0  0  0
  2 23  1  0  0  0  0
  3  4  1  0  0  0  0
  3  7  1  0  0  0  0
  4  5  2  0  0  0  0
  4 10  1  0  0  0  0
  5  6  1  0  0  0  0
  5 26  1  0  0  0  0
  6 24  1  0  0  0  0
  7  8  2  0  0  0  0
  8  9  1  0  0  0  0
  8 14  1  0  0  0  0
  9 10  2  0  0  0  0
  9 17  1  0  0  0  0
 11  7  1  0  0  0  0
 11 12  1  0  0  0  0
 11 18  1  0  0  0  0
 12 13  2  0  0  0  0
 12 21  1  0  0  0  0
 13 14  1  0  0  0  0
 14 15  2  0  0  0  0
 15 16  1  0  0  0  0
 15 29  1  0  0  0  0
 16 17  2  0  0  0  0
 16 35  1  0  0  0  0
 17 28  1  0  0  0  0
 18 19  2  0  0  0  0
 18 22  1  0  0  0  0
 19 20  1  0  0  0  0
 19 31  1  0  0  0  0
 20 21  2  0  0  0  0
 20 25  1  0  0  0  0
 21 30  1  0  0  0  0
 22 42  1  0  0  0  0
 23 43  1  0  0  0  0
 24 32  2  0  0  0  0
 24 33  1  0  0  0  0
 25 39  2  0  0  0  0
 25 40  1  0  0  0  0
 33 34  1  0  0  0  0
 34 56  1  0  0  0  0
 34 57  1  0  0  0  0
 34 58  1  0  0  0  0
 35 36  2  0  0  0  0
 35 37  1  0  0  0  0
 37 38  1  0  0  0  0
 38 47  1  0  0  0  0
 38 48  1  0  0  0  0
 38 49  1  0  0  0  0
 40 41  1  0  0  0  0
 41 44  1  0  0  0  0
 41 45  1  0  0  0  0
 41 46  1  0  0  0  0
 42 53  1  0  0  0  0
 42 54  1  0  0  0  0
 42 55  1  0  0  0  0
 43 50  1  0  0  0  0
 43 51  1  0  0  0  0
 43 52  1  0  0  0  0
 59 60  1  0  0  0  0
 59 64  2  0  0  0  0
 59 85  1  0  0  0  0
 60 61  2  0  0  0  0
 60 81  1  0  0  0  0
 61 62  1  0  0  0  0
 61 65  1  0  0  0  0
 62 63  2  0  0  0  0
 62 68  1  0  0  0  0
 63 64  1  0  0  0  0
 63 84  1  0  0  0  0
 64 82  1  0  0  0  0
 65 66  2  0  0  0  0
 66 67  1  0  0  0  0
 66 72  1  0  0  0  0
 67 68  2  0  0  0  0
 67 75  1  0  0  0  0
 69 65  1  0  0  0  0
 69 70  1  0  0  0  0
 69 76  1  0  0  0  0
 70 71  2  0  0  0  0
 70 79  1  0  0  0  0
 71 72  1  0  0  0  0
 72 73  2  0  0  0  0
 73 74  1  0  0  0  0
 73 87  1  0  0  0  0
 74 75  2  0  0  0  0
 74 93  1  0  0  0  0
 75 86  1  0  0  0  0
 76 77  2  0  0  0  0
 76 80  1  0  0  0  0
 77 78  1  0  0  0  0
 77 89  1  0  0  0  0
 78 79  2  0  0  0  0
 78 83  1  0  0  0  0
 79 88  1  0  0  0  0
 80100  1  0  0  0  0
 81101  1  0  0  0  0
 82 90  2  0  0  0  0
 82 91  1  0  0  0  0
 83 97  2  0  0  0  0
 83 98  1  0  0  0  0
 91 92  1  0  0  0  0
 92114  1  0  0  0  0
 92115  1  0  0  0  0
 92116  1  0  0  0  0
 93 94  2  0  0  0  0
 93 95  1  0  0  0  0
 95 96  1  0  0  0  0
 96105  1  0  0  0  0
 96106  1  0  0  0  0
 96107  1  0  0  0  0
 98 99  1  0  0  0  0
 99102  1  0  0  0  0
 99103  1  0  0  0  0
 99104  1  0  0  0  0
100111  1  0  0  0  0
100112  1  0  0  0  0
100113  1  0  0  0  0
101108  1  0  0  0  0
101109  1  0  0  0  0
101110  1  0  0  0  0
M  END
