xtb: 6.7.1 (43a0e4e5b5d943adc66b4aa6563d39c792f6153b)_xtb: 6.7.1 (43a0e4e5b5d943adc66b4aa6563d39c792f6153b)
 OpenBabel11252410443D

116124  0  0  0  0  0  0  0  0999 V2000
   -2.5749    2.4856   -2.0897 C   0  0  0  0  0  0  0  0  0  0  0  0
   -2.2967    1.3286   -1.3959 C   0  0  0  0  0  0  0  0  0  0  0  0
   -1.2692    1.3156   -0.4253 C   0  0  0  0  0  0  0  0  0  0  0  0
   -0.3625    2.4270   -0.3856 C   0  0  0  0  0  0  0  0  0  0  0  0
   -0.6939    3.6068   -1.0876 C   0  0  0  0  0  0  0  0  0  0  0  0
   -1.8071    3.6471   -1.8924 C   0  0  0  0  0  0  0  0  0  0  0  0
   -1.0021    0.2443    0.4840 C   0  0  0  0  0  0  0  0  0  0  0  0
    0.3058    0.1550    0.9829 C   0  0  0  0  0  0  0  0  0  0  0  0
    1.2002    1.2555    0.8244 C   0  0  0  0  0  0  0  0  0  0  0  0
    0.8097    2.3915    0.2488 N   0  0  0  0  0  0  0  0  0  0  0  0
   -1.9273   -0.7473    0.9297 C   0  0  1  0  0  0  0  0  0  0  0  0
   -1.3702   -1.9531    1.4681 C   0  0  0  0  0  0  0  0  0  0  0  0
   -0.0788   -2.0868    1.7725 N   0  0  0  0  0  0  0  0  0  0  0  0
    0.7285   -1.0348    1.6482 C   0  0  0  0  0  0  0  0  0  0  0  0
    2.0534   -1.1048    2.1193 C   0  0  0  0  0  0  0  0  0  0  0  0
    2.9123   -0.0208    1.9776 C   0  0  0  0  0  0  0  0  0  0  0  0
    2.5021    1.1507    1.3528 C   0  0  0  0  0  0  0  0  0  0  0  0
   -3.3372   -0.5800    0.9370 C   0  0  0  0  0  0  0  0  0  0  0  0
   -4.1381   -1.6721    1.2051 C   0  0  0  0  0  0  0  0  0  0  0  0
   -3.5773   -2.9113    1.5641 C   0  0  0  0  0  0  0  0  0  0  0  0
   -2.2219   -3.0496    1.7327 C   0  0  0  0  0  0  0  0  0  0  0  0
   -3.7935    0.6774    0.7597 O   0  0  0  0  0  0  0  0  0  0  0  0
   -3.0324    0.2039   -1.7067 O   0  0  0  0  0  0  0  0  0  0  0  0
   -2.1232    4.9104   -2.6075 C   0  0  0  0  0  0  0  0  0  0  0  0
   -4.5251   -4.0259    1.8244 C   0  0  0  0  0  0  0  0  0  0  0  0
   -0.0407    4.4611   -1.0094 H   0  0  0  0  0  0  0  0  0  0  0  0
   -3.3823    2.4875   -2.8041 H   0  0  0  0  0  0  0  0  0  0  0  0
    3.1679    1.9919    1.2560 H   0  0  0  0  0  0  0  0  0  0  0  0
    2.3972   -2.0055    2.6024 H   0  0  0  0  0  0  0  0  0  0  0  0
   -1.7842   -3.9628    2.0978 H   0  0  0  0  0  0  0  0  0  0  0  0
   -5.2137   -1.6121    1.1673 H   0  0  0  0  0  0  0  0  0  0  0  0
   -1.4794    5.9252   -2.5119 O   0  0  0  0  0  0  0  0  0  0  0  0
   -3.2145    4.8046   -3.3797 O   0  0  0  0  0  0  0  0  0  0  0  0
   -3.5769    5.9744   -4.0980 C   0  0  0  0  0  0  0  0  0  0  0  0
    4.2914   -0.1623    2.5233 C   0  0  0  0  0  0  0  0  0  0  0  0
    4.7081   -1.1595    3.0573 O   0  0  0  0  0  0  0  0  0  0  0  0
    5.0254    0.9441    2.3561 O   0  0  0  0  0  0  0  0  0  0  0  0
    6.3536    0.8856    2.8549 C   0  0  0  0  0  0  0  0  0  0  0  0
   -5.7211   -3.9436    1.6810 O   0  0  0  0  0  0  0  0  0  0  0  0
   -3.9105   -5.1382    2.2418 O   0  0  0  0  0  0  0  0  0  0  0  0
   -4.7556   -6.2427    2.5273 C   0  0  0  0  0  0  0  0  0  0  0  0
   -5.1831    0.8900    0.6749 C   0  0  0  0  0  0  0  0  0  0  0  0
   -2.3000   -0.8445   -2.3060 C   0  0  0  0  0  0  0  0  0  0  0  0
   -4.1064   -7.0377    2.8844 H   0  0  0  0  0  0  0  0  0  0  0  0
   -5.2883   -6.5565    1.6271 H   0  0  0  0  0  0  0  0  0  0  0  0
   -5.4883   -5.9720    3.2905 H   0  0  0  0  0  0  0  0  0  0  0  0
    6.8090    1.8439    2.6199 H   0  0  0  0  0  0  0  0  0  0  0  0
    6.9023    0.0707    2.3781 H   0  0  0  0  0  0  0  0  0  0  0  0
    6.3461    0.7176    3.9338 H   0  0  0  0  0  0  0  0  0  0  0  0
   -3.0079   -1.6580   -2.4532 H   0  0  0  0  0  0  0  0  0  0  0  0
   -1.4772   -1.1943   -1.6750 H   0  0  0  0  0  0  0  0  0  0  0  0
   -1.8964   -0.5309   -3.2754 H   0  0  0  0  0  0  0  0  0  0  0  0
   -5.3028    1.9581    0.5025 H   0  0  0  0  0  0  0  0  0  0  0  0
   -5.6884    0.6108    1.6044 H   0  0  0  0  0  0  0  0  0  0  0  0
   -5.6146    0.3355   -0.1624 H   0  0  0  0  0  0  0  0  0  0  0  0
   -4.4909    5.7320   -4.6338 H   0  0  0  0  0  0  0  0  0  0  0  0
   -2.7840    6.2507   -4.7962 H   0  0  0  0  0  0  0  0  0  0  0  0
   -3.7420    6.8062   -3.4102 H   0  0  0  0  0  0  0  0  0  0  0  0
   -2.5749    2.4856    3.9103 C   0  0  0  0  0  0  0  0  0  0  0  0
   -2.2967    1.3286    4.6041 C   0  0  0  0  0  0  0  0  0  0  0  0
   -1.2692    1.3156    5.5747 C   0  0  0  0  0  0  0  0  0  0  0  0
   -0.3625    2.4270    5.6144 C   0  0  0  0  0  0  0  0  0  0  0  0
   -0.6939    3.6068    4.9124 C   0  0  0  0  0  0  0  0  0  0  0  0
   -1.8071    3.6471    4.1076 C   0  0  0  0  0  0  0  0  0  0  0  0
   -1.0021    0.2443    6.4840 C   0  0  0  0  0  0  0  0  0  0  0  0
    0.3058    0.1550    6.9829 C   0  0  0  0  0  0  0  0  0  0  0  0
    1.2002    1.2555    6.8244 C   0  0  0  0  0  0  0  0  0  0  0  0
    0.8097    2.3915    6.2488 N   0  0  0  0  0  0  0  0  0  0  0  0
   -1.9273   -0.7473    6.9297 C   0  0  1  0  0  0  0  0  0  0  0  0
   -1.3702   -1.9531    7.4681 C   0  0  0  0  0  0  0  0  0  0  0  0
   -0.0788   -2.0868    7.7725 N   0  0  0  0  0  0  0  0  0  0  0  0
    0.7285   -1.0348    7.6482 C   0  0  0  0  0  0  0  0  0  0  0  0
    2.0534   -1.1048    8.1193 C   0  0  0  0  0  0  0  0  0  0  0  0
    2.9123   -0.0208    7.9776 C   0  0  0  0  0  0  0  0  0  0  0  0
    2.5021    1.1507    7.3528 C   0  0  0  0  0  0  0  0  0  0  0  0
   -3.3372   -0.5800    6.9370 C   0  0  0  0  0  0  0  0  0  0  0  0
   -4.1381   -1.6721    7.2051 C   0  0  0  0  0  0  0  0  0  0  0  0
   -3.5773   -2.9113    7.5641 C   0  0  0  0  0  0  0  0  0  0  0  0
   -2.2219   -3.0496    7.7327 C   0  0  0  0  0  0  0  0  0  0  0  0
   -3.7935    0.6774    6.7597 O   0  0  0  0  0  0  0  0  0  0  0  0
   -3.0324    0.2039    4.2933 O   0  0  0  0  0  0  0  0  0  0  0  0
   -2.1232    4.9104    3.3925 C   0  0  0  0  0  0  0  0  0  0  0  0
   -4.5251   -4.0259    7.8244 C   0  0  0  0  0  0  0  0  0  0  0  0
   -0.0407    4.4611    4.9906 H   0  0  0  0  0  0  0  0  0  0  0  0
   -3.3823    2.4875    3.1959 H   0  0  0  0  0  0  0  0  0  0  0  0
    3.1679    1.9919    7.2560 H   0  0  0  0  0  0  0  0  0  0  0  0
    2.3972   -2.0055    8.6024 H   0  0  0  0  0  0  0  0  0  0  0  0
   -1.7842   -3.9628    8.0978 H   0  0  0  0  0  0  0  0  0  0  0  0
   -5.2137   -1.6121    7.1673 H   0  0  0  0  0  0  0  0  0  0  0  0
   -1.4794    5.9252    3.4881 O   0  0  0  0  0  0  0  0  0  0  0  0
   -3.2145    4.8046    2.6203 O   0  0  0  0  0  0  0  0  0  0  0  0
   -3.5769    5.9744    1.9020 C   0  0  0  0  0  0  0  0  0  0  0  0
    4.2914   -0.1623    8.5233 C   0  0  0  0  0  0  0  0  0  0  0  0
    4.7081   -1.1595    9.0573 O   0  0  0  0  0  0  0  0  0  0  0  0
    5.0254    0.9441    8.3561 O   0  0  0  0  0  0  0  0  0  0  0  0
    6.3536    0.8856    8.8549 C   0  0  0  0  0  0  0  0  0  0  0  0
   -5.7211   -3.9436    7.6810 O   0  0  0  0  0  0  0  0  0  0  0  0
   -3.9105   -5.1382    8.2418 O   0  0  0  0  0  0  0  0  0  0  0  0
   -4.7556   -6.2427    8.5273 C   0  0  0  0  0  0  0  0  0  0  0  0
   -5.1831    0.8900    6.6749 C   0  0  0  0  0  0  0  0  0  0  0  0
   -2.3000   -0.8445    3.6940 C   0  0  0  0  0  0  0  0  0  0  0  0
   -4.1064   -7.0377    8.8844 H   0  0  0  0  0  0  0  0  0  0  0  0
   -5.2883   -6.5565    7.6271 H   0  0  0  0  0  0  0  0  0  0  0  0
   -5.4883   -5.9720    9.2905 H   0  0  0  0  0  0  0  0  0  0  0  0
    6.8090    1.8439    8.6199 H   0  0  0  0  0  0  0  0  0  0  0  0
    6.9023    0.0707    8.3781 H   0  0  0  0  0  0  0  0  0  0  0  0
    6.3461    0.7176    9.9338 H   0  0  0  0  0  0  0  0  0  0  0  0
   -3.0079   -1.6580    3.5468 H   0  0  0  0  0  0  0  0  0  0  0  0
   -1.4772   -1.1943    4.3250 H   0  0  0  0  0  0  0  0  0  0  0  0
   -1.8964   -0.5309    2.7246 H   0  0  0  0  0  0  0  0  0  0  0  0
   -5.3028    1.9581    6.5025 H   0  0  0  0  0  0  0  0  0  0  0  0
   -5.6884    0.6108    7.6044 H   0  0  0  0  0  0  0  0  0  0  0  0
   -5.6146    0.3355    5.8376 H   0  0  0  0  0  0  0  0  0  0  0  0
   -4.4909    5.7320    1.3662 H   0  0  0  0  0  0  0  0  0  0  0  0
   -2.7840    6.2507    1.2038 H   0  0  0  0  0  0  0  0  0  0  0  0
   -3.7420    6.8062    2.5898 H   0  0  0  0  0  0  0  0  0  0  0  0
  1  2  1  0  0  0  0
  1  6  2  0  0  0  0
  1 27  1  0  0  0  0
  2  3  2  0  0  0  0
  2 23  1  0  0  0  0
  3  4  1  0  0  0  0
  3  7  1  0  0  0  0
  4  5  2  0  0  0  0
  4 10  1  0  0  0  0
  5  6  1  0  0  0  0
  5 26  1  0  0  0  0
  6 24  1  0  0  0  0
  7  8  2  0  0  0  0
  8  9  1  0  0  0  0
  8 14  1  0  0  0  0
  9 10  2  0  0  0  0
  9 17  1  0  0  0  0
 11  7  1  1  0  0  0
 11 12  1  0  0  0  0
 11 18  1  0  0  0  0
 12 13  2  0  0  0  0
 12 21  1  0  0  0  0
 13 14  1  0  0  0  0
 14 15  2  0  0  0  0
 15 16  1  0  0  0  0
 15 29  1  0  0  0  0
 16 17  2  0  0  0  0
 16 35  1  0  0  0  0
 17 28  1  0  0  0  0
 18 19  2  0  0  0  0
 18 22  1  0  0  0  0
 19 20  1  0  0  0  0
 19 31  1  0  0  0  0
 20 21  2  0  0  0  0
 20 25  1  0  0  0  0
 21 30  1  0  0  0  0
 22 42  1  0  0  0  0
 23 43  1  0  0  0  0
 24 32  2  0  0  0  0
 24 33  1  0  0  0  0
 25 39  2  0  0  0  0
 25 40  1  0  0  0  0
 33 34  1  0  0  0  0
 34 56  1  0  0  0  0
 34 57  1  0  0  0  0
 34 58  1  0  0  0  0
 35 36  2  0  0  0  0
 35 37  1  0  0  0  0
 37 38  1  0  0  0  0
 38 47  1  0  0  0  0
 38 48  1  0  0  0  0
 38 49  1  0  0  0  0
 40 41  1  0  0  0  0
 41 44  1  0  0  0  0
 41 45  1  0  0  0  0
 41 46  1  0  0  0  0
 42 53  1  0  0  0  0
 42 54  1  0  0  0  0
 42 55  1  0  0  0  0
 43 50  1  0  0  0  0
 43 51  1  0  0  0  0
 43 52  1  0  0  0  0
 59 60  1  0  0  0  0
 59 64  2  0  0  0  0
 59 85  1  0  0  0  0
 60 61  2  0  0  0  0
 60 81  1  0  0  0  0
 61 62  1  0  0  0  0
 61 65  1  0  0  0  0
 62 63  2  0  0  0  0
 62 68  1  0  0  0  0
 63 64  1  0  0  0  0
 63 84  1  0  0  0  0
 64 82  1  0  0  0  0
 65 66  2  0  0  0  0
 66 67  1  0  0  0  0
 66 72  1  0  0  0  0
 67 68  2  0  0  0  0
 67 75  1  0  0  0  0
 69 65  1  1  0  0  0
 69 70  1  0  0  0  0
 69 76  1  0  0  0  0
 70 71  2  0  0  0  0
 70 79  1  0  0  0  0
 71 72  1  0  0  0  0
 72 73  2  0  0  0  0
 73 74  1  0  0  0  0
 73 87  1  0  0  0  0
 74 75  2  0  0  0  0
 74 93  1  0  0  0  0
 75 86  1  0  0  0  0
 76 77  2  0  0  0  0
 76 80  1  0  0  0  0
 77 78  1  0  0  0  0
 77 89  1  0  0  0  0
 78 79  2  0  0  0  0
 78 83  1  0  0  0  0
 79 88  1  0  0  0  0
 80100  1  0  0  0  0
 81101  1  0  0  0  0
 82 90  2  0  0  0  0
 82 91  1  0  0  0  0
 83 97  2  0  0  0  0
 83 98  1  0  0  0  0
 91 92  1  0  0  0  0
 92114  1  0  0  0  0
 92115  1  0  0  0  0
 92116  1  0  0  0  0
 93 94  2  0  0  0  0
 93 95  1  0  0  0  0
 95 96  1  0  0  0  0
 96105  1  0  0  0  0
 96106  1  0  0  0  0
 96107  1  0  0  0  0
 98 99  1  0  0  0  0
 99102  1  0  0  0  0
 99103  1  0  0  0  0
 99104  1  0  0  0  0
100111  1  0  0  0  0
100112  1  0  0  0  0
100113  1  0  0  0  0
101108  1  0  0  0  0
101109  1  0  0  0  0
101110  1  0  0  0  0
M  END
