116
xtb: 6.7.1 (43a0e4e5b5d943adc66b4aa6563d39c792f6153b)_xtb: 6.7.1 (43a0e4e5b5d943adc66b4aa
 C   -2.574900    2.485600   -2.089700
 C   -2.296700    1.328600   -1.395900
 C   -1.269200    1.315600   -0.425300
 C   -0.362500    2.427000   -0.385600
 C   -0.693900    3.606800   -1.087600
 C   -1.807100    3.647100   -1.892400
 C   -1.002100    0.244300    0.484000
 C    0.305800    0.155000    0.982900
 C    1.200200    1.255500    0.824400
 N    0.809700    2.391500    0.248800
 C   -1.927300   -0.747300    0.929700
 C   -1.370200   -1.953100    1.468100
 N   -0.078800   -2.086800    1.772500
 C    0.728500   -1.034800    1.648200
 C    2.053400   -1.104800    2.119300
 C    2.912300   -0.020800    1.977600
 C    2.502100    1.150700    1.352800
 C   -3.337200   -0.580000    0.937000
 C   -4.138100   -1.672100    1.205100
 C   -3.577300   -2.911300    1.564100
 C   -2.221900   -3.049600    1.732700
 O   -3.793500    0.677400    0.759700
 O   -3.032400    0.203900   -1.706700
 C   -2.123200    4.910400   -2.607500
 C   -4.525100   -4.025900    1.824400
 H   -0.040700    4.461100   -1.009400
 H   -3.382300    2.487500   -2.804100
 H    3.167900    1.991900    1.256000
 H    2.397200   -2.005500    2.602400
 H   -1.784200   -3.962800    2.097800
 H   -5.213700   -1.612100    1.167300
 O   -1.479400    5.925200   -2.511900
 O   -3.214500    4.804600   -3.379700
 C   -3.576900    5.974400   -4.098000
 C    4.291400   -0.162300    2.523300
 O    4.708100   -1.159500    3.057300
 O    5.025400    0.944100    2.356100
 C    6.353600    0.885600    2.854900
 O   -5.721100   -3.943600    1.681000
 O   -3.910500   -5.138200    2.241800
 C   -4.755600   -6.242700    2.527300
 C   -5.183100    0.890000    0.674900
 C   -2.300000   -0.844500   -2.306000
 H   -4.106400   -7.037700    2.884400
 H   -5.288300   -6.556500    1.627100
 H   -5.488300   -5.972000    3.290500
 H    6.809000    1.843900    2.619900
 H    6.902300    0.070700    2.378100
 H    6.346100    0.717600    3.933800
 H   -3.007900   -1.658000   -2.453200
 H   -1.477200   -1.194300   -1.675000
 H   -1.896400   -0.530900   -3.275400
 H   -5.302800    1.958100    0.502500
 H   -5.688400    0.610800    1.604400
 H   -5.614600    0.335500   -0.162400
 H   -4.490900    5.732000   -4.633800
 H   -2.784000    6.250700   -4.796200
 H   -3.742000    6.806200   -3.410200
 C   -2.574900    2.485600    3.910300
 C   -2.296700    1.328600    4.604100
 C   -1.269200    1.315600    5.574700
 C   -0.362500    2.427000    5.614400
 C   -0.693900    3.606800    4.912400
 C   -1.807100    3.647100    4.107600
 C   -1.002100    0.244300    6.484000
 C    0.305800    0.155000    6.982900
 C    1.200200    1.255500    6.824400
 N    0.809700    2.391500    6.248800
 C   -1.927300   -0.747300    6.929700
 C   -1.370200   -1.953100    7.468100
 N   -0.078800   -2.086800    7.772500
 C    0.728500   -1.034800    7.648200
 C    2.053400   -1.104800    8.119300
 C    2.912300   -0.020800    7.977600
 C    2.502100    1.150700    7.352800
 C   -3.337200   -0.580000    6.937000
 C   -4.138100   -1.672100    7.205100
 C   -3.577300   -2.911300    7.564100
 C   -2.221900   -3.049600    7.732700
 O   -3.793500    0.677400    6.759700
 O   -3.032400    0.203900    4.293300
 C   -2.123200    4.910400    3.392500
 C   -4.525100   -4.025900    7.824400
 H   -0.040700    4.461100    4.990600
 H   -3.382300    2.487500    3.195900
 H    3.167900    1.991900    7.256000
 H    2.397200   -2.005500    8.602400
 H   -1.784200   -3.962800    8.097800
 H   -5.213700   -1.612100    7.167300
 O   -1.479400    5.925200    3.488100
 O   -3.214500    4.804600    2.620300
 C   -3.576900    5.974400    1.902000
 C    4.291400   -0.162300    8.523300
 O    4.708100   -1.159500    9.057300
 O    5.025400    0.944100    8.356100
 C    6.353600    0.885600    8.854900
 O   -5.721100   -3.943600    7.681000
 O   -3.910500   -5.138200    8.241800
 C   -4.755600   -6.242700    8.527300
 C   -5.183100    0.890000    6.674900
 C   -2.300000   -0.844500    3.694000
 H   -4.106400   -7.037700    8.884400
 H   -5.288300   -6.556500    7.627100
 H   -5.488300   -5.972000    9.290500
 H    6.809000    1.843900    8.619900
 H    6.902300    0.070700    8.378100
 H    6.346100    0.717600    9.933800
 H   -3.007900   -1.658000    3.546800
 H   -1.477200   -1.194300    4.325000
 H   -1.896400   -0.530900    2.724600
 H   -5.302800    1.958100    6.502500
 H   -5.688400    0.610800    7.604400
 H   -5.614600    0.335500    5.837600
 H   -4.490900    5.732000    1.366200
 H   -2.784000    6.250700    1.203800
 H   -3.742000    6.806200    2.589800
