 xtb: 6.7.1 (edcfbbe)
          12022411503D

116124  0     0  0            999 V2000
   -2.1497    2.8638   -1.1487 C   0  0  0  0  0  0  0  0  0  0  0  0
   -1.9545    1.6562   -0.5154 C   0  0  0  0  0  0  0  0  0  0  0  0
   -1.1698    1.5986    0.6605 C   0  0  0  0  0  0  0  0  0  0  0  0
   -0.3278    2.7232    0.9584 C   0  0  0  0  0  0  0  0  0  0  0  0
   -0.5446    3.9457    0.2831 C   0  0  0  0  0  0  0  0  0  0  0  0
   -1.4921    4.0270   -0.7070 C   0  0  0  0  0  0  0  0  0  0  0  0
   -1.0870    0.4845    1.5523 C   0  0  0  0  0  0  0  0  0  0  0  0
    0.0602    0.4047    2.3564 C   0  0  0  0  0  0  0  0  0  0  0  0
    0.9477    1.5186    2.4416 C   0  0  0  0  0  0  0  0  0  0  0  0
    0.6829    2.6657    1.8215 N   0  0  0  0  0  0  0  0  0  0  0  0
   -2.0475   -0.5649    1.6942 C   0  0  0  0  0  0  0  0  0  0  0  0
   -1.5849   -1.7791    2.2948 C   0  0  0  0  0  0  0  0  0  0  0  0
   -0.4236   -1.8774    2.9444 N   0  0  0  0  0  0  0  0  0  0  0  0
    0.3404   -0.7940    3.0757 C   0  0  0  0  0  0  0  0  0  0  0  0
    1.5065   -0.8535    3.8624 C   0  0  0  0  0  0  0  0  0  0  0  0
    2.3714    0.2313    3.9243 C   0  0  0  0  0  0  0  0  0  0  0  0
    2.1017    1.4101    3.2418 C   0  0  0  0  0  0  0  0  0  0  0  0
   -3.4176   -0.4684    1.3308 C   0  0  0  0  0  0  0  0  0  0  0  0
   -4.1866   -1.6146    1.3038 C   0  0  0  0  0  0  0  0  0  0  0  0
   -3.6604   -2.8518    1.7148 C   0  0  0  0  0  0  0  0  0  0  0  0
   -2.3951   -2.9354    2.2393 C   0  0  0  0  0  0  0  0  0  0  0  0
   -3.9007    0.7709    1.1057 O   0  0  0  0  0  0  0  0  0  0  0  0
   -2.5299    0.5415   -1.0878 O   0  0  0  0  0  0  0  0  0  0  0  0
   -1.7490    5.3372   -1.3579 C   0  0  0  0  0  0  0  0  0  0  0  0
   -4.5565   -4.0321    1.6196 C   0  0  0  0  0  0  0  0  0  0  0  0
    0.0434    4.8036    0.5639 H   0  0  0  0  0  0  0  0  0  0  0  0
   -2.7932    2.9026   -2.0135 H   0  0  0  0  0  0  0  0  0  0  0  0
    2.7609    2.2581    3.3148 H   0  0  0  0  0  0  0  0  0  0  0  0
    1.7376   -1.7586    4.4022 H   0  0  0  0  0  0  0  0  0  0  0  0
   -2.0023   -3.8564    2.6359 H   0  0  0  0  0  0  0  0  0  0  0  0
   -5.2145   -1.6031    0.9803 H   0  0  0  0  0  0  0  0  0  0  0  0
   -1.0110    6.2867   -1.3115 O   0  0  0  0  0  0  0  0  0  0  0  0
   -2.9269    5.3502   -2.0052 O   0  0  0  0  0  0  0  0  0  0  0  0
   -3.2602    6.5692   -2.6521 C   0  0  0  0  0  0  0  0  0  0  0  0
    3.6106    0.0772    4.7343 C   0  0  0  0  0  0  0  0  0  0  0  0
    3.7991   -0.8189    5.5208 O   0  0  0  0  0  0  0  0  0  0  0  0
    4.5085    1.0260    4.4640 O   0  0  0  0  0  0  0  0  0  0  0  0
    5.7428    0.9414    5.1630 C   0  0  0  0  0  0  0  0  0  0  0  0
   -5.6572   -4.0099    1.1247 O   0  0  0  0  0  0  0  0  0  0  0  0
   -4.0109   -5.1351    2.1479 O   0  0  0  0  0  0  0  0  0  0  0  0
   -4.8073   -6.3088    2.0902 C   0  0  0  0  0  0  0  0  0  0  0  0
   -5.2243    0.9040    0.6441 C   0  0  0  0  0  0  0  0  0  0  0  0
   -1.6275   -0.4582   -1.5137 C   0  0  0  0  0  0  0  0  0  0  0  0
   -4.2277   -7.0930    2.5700 H   0  0  0  0  0  0  0  0  0  0  0  0
   -5.0229   -6.5707    1.0522 H   0  0  0  0  0  0  0  0  0  0  0  0
   -5.7522   -6.1529    2.6149 H   0  0  0  0  0  0  0  0  0  0  0  0
    6.3993    1.6787    4.7077 H   0  0  0  0  0  0  0  0  0  0  0  0
    6.1632   -0.0619    5.0666 H   0  0  0  0  0  0  0  0  0  0  0  0
    5.5911    1.1605    6.2209 H   0  0  0  0  0  0  0  0  0  0  0  0
   -2.2418   -1.2581   -1.9233 H   0  0  0  0  0  0  0  0  0  0  0  0
   -1.0215   -0.8556   -0.6943 H   0  0  0  0  0  0  0  0  0  0  0  0
   -0.9621   -0.0726   -2.2942 H   0  0  0  0  0  0  0  0  0  0  0  0
   -5.3704    1.9692    0.4796 H   0  0  0  0  0  0  0  0  0  0  0  0
   -5.9448    0.5474    1.3867 H   0  0  0  0  0  0  0  0  0  0  0  0
   -5.3670    0.3680   -0.2980 H   0  0  0  0  0  0  0  0  0  0  0  0
   -4.2493    6.4269   -3.0799 H   0  0  0  0  0  0  0  0  0  0  0  0
   -2.5323    6.7949   -3.4341 H   0  0  0  0  0  0  0  0  0  0  0  0
   -3.2658    7.3905   -1.9327 H   0  0  0  0  0  0  0  0  0  0  0  0
   -2.7451    1.2768    4.2958 C   0  0  0  0  0  0  0  0  0  0  0  0
   -2.3214    0.3019    5.1860 C   0  0  0  0  0  0  0  0  0  0  0  0
   -1.2125    0.5699    6.0231 C   0  0  0  0  0  0  0  0  0  0  0  0
   -0.3458    1.6600    5.6605 C   0  0  0  0  0  0  0  0  0  0  0  0
   -0.7949    2.6162    4.7265 C   0  0  0  0  0  0  0  0  0  0  0  0
   -2.0170    2.4595    4.1124 C   0  0  0  0  0  0  0  0  0  0  0  0
   -0.8672   -0.1141    7.2307 C   0  0  0  0  0  0  0  0  0  0  0  0
    0.4691   -0.0232    7.6536 C   0  0  0  0  0  0  0  0  0  0  0  0
    1.3298    0.9526    7.0710 C   0  0  0  0  0  0  0  0  0  0  0  0
    0.8721    1.8264    6.1758 N   0  0  0  0  0  0  0  0  0  0  0  0
   -1.7570   -0.8027    8.1116 C   0  0  0  0  0  0  0  0  0  0  0  0
   -1.1643   -1.7037    9.0561 C   0  0  0  0  0  0  0  0  0  0  0  0
    0.1473   -1.7666    9.2822 N   0  0  0  0  0  0  0  0  0  0  0  0
    0.9416   -0.8718    8.6972 C   0  0  0  0  0  0  0  0  0  0  0  0
    2.2892   -0.7667    9.0892 C   0  0  0  0  0  0  0  0  0  0  0  0
    3.1136    0.2054    8.5360 C   0  0  0  0  0  0  0  0  0  0  0  0
    2.6480    1.0698    7.5528 C   0  0  0  0  0  0  0  0  0  0  0  0
   -3.1610   -0.5768    8.1748 C   0  0  0  0  0  0  0  0  0  0  0  0
   -3.9404   -1.3869    8.9728 C   0  0  0  0  0  0  0  0  0  0  0  0
   -3.3612   -2.4005    9.7595 C   0  0  0  0  0  0  0  0  0  0  0  0
   -1.9986   -2.5447    9.8279 C   0  0  0  0  0  0  0  0  0  0  0  0
   -3.6316    0.4768    7.4697 O   0  0  0  0  0  0  0  0  0  0  0  0
   -3.0258   -0.8602    5.1455 O   0  0  0  0  0  0  0  0  0  0  0  0
   -2.4901    3.5312    3.2006 C   0  0  0  0  0  0  0  0  0  0  0  0
   -4.2886   -3.2530   10.5463 C   0  0  0  0  0  0  0  0  0  0  0  0
   -0.1716    3.4670    4.5046 H   0  0  0  0  0  0  0  0  0  0  0  0
   -3.6408    1.1024    3.7239 H   0  0  0  0  0  0  0  0  0  0  0  0
    3.2710    1.8534    7.1545 H   0  0  0  0  0  0  0  0  0  0  0  0
    2.6707   -1.4254    9.8531 H   0  0  0  0  0  0  0  0  0  0  0  0
   -1.5351   -3.2539   10.4920 H   0  0  0  0  0  0  0  0  0  0  0  0
   -5.0108   -1.2745    9.0268 H   0  0  0  0  0  0  0  0  0  0  0  0
   -1.8486    4.5140    2.9239 O   0  0  0  0  0  0  0  0  0  0  0  0
   -3.7272    3.3082    2.7361 O   0  0  0  0  0  0  0  0  0  0  0  0
   -4.2527    4.2926    1.8591 C   0  0  0  0  0  0  0  0  0  0  0  0
    4.4994    0.2994    9.0679 C   0  0  0  0  0  0  0  0  0  0  0  0
    4.9418   -0.4037    9.9398 O   0  0  0  0  0  0  0  0  0  0  0  0
    5.2166    1.2743    8.4851 O   0  0  0  0  0  0  0  0  0  0  0  0
    6.5427    1.4325    8.9709 C   0  0  0  0  0  0  0  0  0  0  0  0
   -5.4877   -3.1116   10.5646 O   0  0  0  0  0  0  0  0  0  0  0  0
   -3.6511   -4.2104   11.2292 O   0  0  0  0  0  0  0  0  0  0  0  0
   -4.4710   -5.0715   12.0043 C   0  0  0  0  0  0  0  0  0  0  0  0
   -5.0143    0.7427    7.4801 C   0  0  0  0  0  0  0  0  0  0  0  0
   -2.4092   -2.0880    5.4772 C   0  0  0  0  0  0  0  0  0  0  0  0
   -3.8076   -5.8188   12.4317 H   0  0  0  0  0  0  0  0  0  0  0  0
   -5.2287   -5.5431   11.3749 H   0  0  0  0  0  0  0  0  0  0  0  0
   -4.9732   -4.5082   12.7937 H   0  0  0  0  0  0  0  0  0  0  0  0
    6.9438    2.3180    8.4842 H   0  0  0  0  0  0  0  0  0  0  0  0
    7.1430    0.5538    8.7261 H   0  0  0  0  0  0  0  0  0  0  0  0
    6.5341    1.5593   10.0552 H   0  0  0  0  0  0  0  0  0  0  0  0
   -2.8749   -2.8328    4.8309 H   0  0  0  0  0  0  0  0  0  0  0  0
   -2.5827   -2.3655    6.5198 H   0  0  0  0  0  0  0  0  0  0  0  0
   -1.3351   -2.0679    5.2811 H   0  0  0  0  0  0  0  0  0  0  0  0
   -5.1423    1.6215    6.8503 H   0  0  0  0  0  0  0  0  0  0  0  0
   -5.3728    0.9600    8.4906 H   0  0  0  0  0  0  0  0  0  0  0  0
   -5.5815   -0.0923    7.0592 H   0  0  0  0  0  0  0  0  0  0  0  0
   -5.3365    4.2336    1.9351 H   0  0  0  0  0  0  0  0  0  0  0  0
   -3.9283    4.0898    0.8358 H   0  0  0  0  0  0  0  0  0  0  0  0
   -3.8993    5.2837    2.1518 H   0  0  0  0  0  0  0  0  0  0  0  0
  1  2  4  0  0  0  0
  2  3  4  0  0  0  0
  3  4  1  0  0  0  0
  4  5  4  0  0  0  0
  1  6  4  0  0  0  0
  5  6  4  0  0  0  0
  3  7  4  0  0  0  0
  7  8  4  0  0  0  0
  8  9  1  0  0  0  0
  4 10  4  0  0  0  0
  9 10  4  0  0  0  0
  7 11  4  0  0  0  0
 11 12  4  0  0  0  0
 12 13  4  0  0  0  0
  8 14  1  0  0  0  0
 13 14  4  0  0  0  0
 14 15  4  0  0  0  0
 15 16  4  0  0  0  0
  9 17  4  0  0  0  0
 16 17  4  0  0  0  0
 11 18  4  0  0  0  0
 18 19  4  0  0  0  0
 19 20  4  0  0  0  0
 12 21  4  0  0  0  0
 20 21  4  0  0  0  0
 18 22  1  0  0  0  0
  2 23  1  0  0  0  0
  6 24  1  0  0  0  0
 20 25  1  0  0  0  0
  5 26  1  0  0  0  0
  1 27  1  0  0  0  0
 17 28  1  0  0  0  0
 15 29  1  0  0  0  0
 21 30  1  0  0  0  0
 19 31  1  0  0  0  0
 24 32  2  0  0  0  0
 24 33  1  0  0  0  0
 33 34  1  0  0  0  0
 16 35  1  0  0  0  0
 35 36  2  0  0  0  0
 35 37  1  0  0  0  0
 37 38  1  0  0  0  0
 25 39  2  0  0  0  0
 25 40  1  0  0  0  0
 40 41  1  0  0  0  0
 22 42  1  0  0  0  0
 23 43  1  0  0  0  0
 41 44  1  0  0  0  0
 41 45  1  0  0  0  0
 41 46  1  0  0  0  0
 38 47  1  0  0  0  0
 38 48  1  0  0  0  0
 38 49  1  0  0  0  0
 43 50  1  0  0  0  0
 43 51  1  0  0  0  0
 43 52  1  0  0  0  0
 42 53  1  0  0  0  0
 42 54  1  0  0  0  0
 42 55  1  0  0  0  0
 34 56  1  0  0  0  0
 34 57  1  0  0  0  0
 34 58  1  0  0  0  0
 59 60  4  0  0  0  0
 60 61  4  0  0  0  0
 61 62  1  0  0  0  0
 62 63  4  0  0  0  0
 59 64  4  0  0  0  0
 63 64  4  0  0  0  0
 61 65  4  0  0  0  0
 65 66  4  0  0  0  0
 66 67  1  0  0  0  0
 62 68  4  0  0  0  0
 67 68  4  0  0  0  0
 65 69  4  0  0  0  0
 69 70  4  0  0  0  0
 70 71  4  0  0  0  0
 66 72  1  0  0  0  0
 71 72  4  0  0  0  0
 72 73  4  0  0  0  0
 73 74  4  0  0  0  0
 67 75  4  0  0  0  0
 74 75  4  0  0  0  0
 69 76  4  0  0  0  0
 76 77  4  0  0  0  0
 77 78  4  0  0  0  0
 70 79  4  0  0  0  0
 78 79  4  0  0  0  0
 76 80  1  0  0  0  0
 60 81  1  0  0  0  0
 64 82  1  0  0  0  0
 78 83  1  0  0  0  0
 63 84  1  0  0  0  0
 59 85  1  0  0  0  0
 75 86  1  0  0  0  0
 73 87  1  0  0  0  0
 79 88  1  0  0  0  0
 77 89  1  0  0  0  0
 82 90  2  0  0  0  0
 82 91  1  0  0  0  0
 91 92  1  0  0  0  0
 74 93  1  0  0  0  0
 93 94  2  0  0  0  0
 93 95  1  0  0  0  0
 95 96  1  0  0  0  0
 83 97  2  0  0  0  0
 83 98  1  0  0  0  0
 98 99  1  0  0  0  0
 80100  1  0  0  0  0
 81101  1  0  0  0  0
 99102  1  0  0  0  0
 99103  1  0  0  0  0
 99104  1  0  0  0  0
 96105  1  0  0  0  0
 96106  1  0  0  0  0
 96107  1  0  0  0  0
101108  1  0  0  0  0
101109  1  0  0  0  0
101110  1  0  0  0  0
100111  1  0  0  0  0
100112  1  0  0  0  0
100113  1  0  0  0  0
 92114  1  0  0  0  0
 92115  1  0  0  0  0
 92116  1  0  0  0  0
M  END
