 energy: -39.537246948195 gnorm: 0.000940174460 xtb: 6.7.1 (edcfbbe)
          03212512093D

202224  0     0  0            999 V2000
   -0.6516    4.3378    0.2585 C   0  0  0  0  0  0  0  0  0  0  0  0
    0.0635    3.3721    0.9580 C   0  0  0  0  0  0  0  0  0  0  0  0
    1.4985    3.3843    0.8616 C   0  0  0  0  0  0  0  0  0  0  0  0
    2.1124    4.5427    0.2892 C   0  0  0  0  0  0  0  0  0  0  0  0
    1.3191    5.4940   -0.3758 C   0  0  0  0  0  0  0  0  0  0  0  0
   -0.0392    5.3754   -0.4087 C   0  0  0  0  0  0  0  0  0  0  0  0
    2.3557    2.3347    1.3307 C   0  0  0  0  0  0  0  0  0  0  0  0
    3.7121    2.6731    1.4737 C   0  0  0  0  0  0  0  0  0  0  0  0
    4.1996    3.9310    1.0114 C   0  0  0  0  0  0  0  0  0  0  0  0
    3.4289    4.8171    0.3674 N   0  0  0  0  0  0  0  0  0  0  0  0
    2.0155    0.9621    1.5921 C   0  0  0  0  0  0  0  0  0  0  0  0
    2.9902    0.1691    2.2804 C   0  0  0  0  0  0  0  0  0  0  0  0
    4.2497    0.5662    2.5496 N   0  0  0  0  0  0  0  0  0  0  0  0
    4.6283    1.7570    2.0674 C   0  0  0  0  0  0  0  0  0  0  0  0
    5.9779    2.1154    2.1781 C   0  0  0  0  0  0  0  0  0  0  0  0
    6.4299    3.3351    1.7355 C   0  0  0  0  0  0  0  0  0  0  0  0
    5.5572    4.2348    1.1729 C   0  0  0  0  0  0  0  0  0  0  0  0
    0.8674    0.2762    1.0515 C   0  0  0  0  0  0  0  0  0  0  0  0
    0.7421   -1.0872    1.2797 C   0  0  0  0  0  0  0  0  0  0  0  0
    1.6038   -1.7863    2.0978 C   0  0  0  0  0  0  0  0  0  0  0  0
    2.7041   -1.1683    2.6044 C   0  0  0  0  0  0  0  0  0  0  0  0
   -0.6572    2.4847    1.7422 O   0  0  0  0  0  0  0  0  0  0  0  0
   -0.1154    0.8274    0.2429 O   0  0  0  0  0  0  0  0  0  0  0  0
   -1.0384    6.5978   -1.2894 S   0  0  0  0  0  0  0  0  0  0  0  0
    1.2830   -3.5329    2.4603 S   0  0  0  0  0  0  0  0  0  0  0  0
    8.1914    3.7560    1.8825 S   0  0  0  0  0  0  0  0  0  0  0  0
   -2.0163   -1.8331    1.5988 C   0  0  0  0  0  0  0  0  0  0  0  0
   -2.5547   -0.6847    1.0184 C   0  0  0  0  0  0  0  0  0  0  0  0
   -3.4217   -0.8292   -0.1356 C   0  0  0  0  0  0  0  0  0  0  0  0
   -3.5066   -2.1295   -0.7285 C   0  0  0  0  0  0  0  0  0  0  0  0
   -2.7727   -3.1989   -0.1858 C   0  0  0  0  0  0  0  0  0  0  0  0
   -2.0560   -3.0600    0.9648 C   0  0  0  0  0  0  0  0  0  0  0  0
   -4.3722    0.1473   -0.6052 C   0  0  0  0  0  0  0  0  0  0  0  0
   -5.3607   -0.2911   -1.4994 C   0  0  0  0  0  0  0  0  0  0  0  0
   -5.2420   -1.5604   -2.1324 C   0  0  0  0  0  0  0  0  0  0  0  0
   -4.3070   -2.4503   -1.7705 N   0  0  0  0  0  0  0  0  0  0  0  0
   -4.5581    1.4876   -0.1322 C   0  0  0  0  0  0  0  0  0  0  0  0
   -5.8510    2.0862   -0.2387 C   0  0  0  0  0  0  0  0  0  0  0  0
   -6.8094    1.6233   -1.0628 N   0  0  0  0  0  0  0  0  0  0  0  0
   -6.5111    0.5170   -1.7635 C   0  0  0  0  0  0  0  0  0  0  0  0
   -7.4183    0.0879   -2.7384 C   0  0  0  0  0  0  0  0  0  0  0  0
   -7.2386   -1.0947   -3.4147 C   0  0  0  0  0  0  0  0  0  0  0  0
   -6.1784   -1.9200   -3.1118 C   0  0  0  0  0  0  0  0  0  0  0  0
   -3.4916    2.3040    0.3681 C   0  0  0  0  0  0  0  0  0  0  0  0
   -3.8230    3.4139    1.1379 C   0  0  0  0  0  0  0  0  0  0  0  0
   -5.1283    3.8708    1.2164 C   0  0  0  0  0  0  0  0  0  0  0  0
   -6.1134    3.2585    0.4916 C   0  0  0  0  0  0  0  0  0  0  0  0
   -2.1302    0.4862    1.6303 O   0  0  0  0  0  0  0  0  0  0  0  0
   -2.1951    2.0603   -0.0532 O   0  0  0  0  0  0  0  0  0  0  0  0
   -1.1107   -4.4799    1.6033 S   0  0  0  0  0  0  0  0  0  0  0  0
   -5.5663    5.3159    2.2136 S   0  0  0  0  0  0  0  0  0  0  0  0
   -8.4368   -1.5664   -4.6880 S   0  0  0  0  0  0  0  0  0  0  0  0
   -1.2805    1.4543    0.9057 B   0  0  0  0  0  0  0  0  0  0  0  0
    7.9788    5.2497    2.0178 O   0  0  0  0  0  0  0  0  0  0  0  0
    8.3569    3.3085    3.5017 O   0  0  0  0  0  0  0  0  0  0  0  0
    8.9681    4.3121    4.2459 C   0  0  0  0  0  0  0  0  0  0  0  0
    1.6270   -4.1211    0.9145 O   0  0  0  0  0  0  0  0  0  0  0  0
    2.9738   -4.0180    0.5908 C   0  0  0  0  0  0  0  0  0  0  0  0
    2.5703   -3.8600    3.1988 O   0  0  0  0  0  0  0  0  0  0  0  0
   -1.2887   -4.2011    3.0887 O   0  0  0  0  0  0  0  0  0  0  0  0
   -2.3144   -5.6357    1.3181 O   0  0  0  0  0  0  0  0  0  0  0  0
   -3.2919   -5.5979    2.2948 C   0  0  0  0  0  0  0  0  0  0  0  0
   -9.4258   -0.4389   -4.4897 O   0  0  0  0  0  0  0  0  0  0  0  0
   -9.1771   -2.7988   -3.8165 O   0  0  0  0  0  0  0  0  0  0  0  0
   -9.9452   -2.3151   -2.7678 C   0  0  0  0  0  0  0  0  0  0  0  0
   -6.3670    6.0534    1.1612 O   0  0  0  0  0  0  0  0  0  0  0  0
   -4.0668    6.0669    2.0958 O   0  0  0  0  0  0  0  0  0  0  0  0
   -3.9385    6.7725    0.9081 C   0  0  0  0  0  0  0  0  0  0  0  0
   -0.5124    6.3502   -2.6891 O   0  0  0  0  0  0  0  0  0  0  0  0
   -2.4629    5.6990   -1.2977 O   0  0  0  0  0  0  0  0  0  0  0  0
   -2.4700    4.7172   -2.2814 C   0  0  0  0  0  0  0  0  0  0  0  0
  -10.4592   -3.1515   -2.2859 H   0  0  0  0  0  0  0  0  0  0  0  0
  -10.6735   -1.6006   -3.1658 H   0  0  0  0  0  0  0  0  0  0  0  0
   -9.2916   -1.8170   -2.0477 H   0  0  0  0  0  0  0  0  0  0  0  0
   -2.9662    7.2721    0.8855 H   0  0  0  0  0  0  0  0  0  0  0  0
   -4.7441    7.5120    0.8545 H   0  0  0  0  0  0  0  0  0  0  0  0
   -4.0257    6.0784    0.0661 H   0  0  0  0  0  0  0  0  0  0  0  0
   -3.4263    4.1875   -2.2491 H   0  0  0  0  0  0  0  0  0  0  0  0
   -1.6499    4.0139   -2.1101 H   0  0  0  0  0  0  0  0  0  0  0  0
   -2.3377    5.2014   -3.2541 H   0  0  0  0  0  0  0  0  0  0  0  0
   -4.1669   -6.1649    1.9648 H   0  0  0  0  0  0  0  0  0  0  0  0
   -3.5425   -4.5485    2.4602 H   0  0  0  0  0  0  0  0  0  0  0  0
   -2.8812   -6.0221    3.2158 H   0  0  0  0  0  0  0  0  0  0  0  0
    3.5605   -4.4996    1.3796 H   0  0  0  0  0  0  0  0  0  0  0  0
    3.2539   -2.9649    0.5075 H   0  0  0  0  0  0  0  0  0  0  0  0
    3.1473   -4.5220   -0.3637 H   0  0  0  0  0  0  0  0  0  0  0  0
    9.0332    3.9881    5.2893 H   0  0  0  0  0  0  0  0  0  0  0  0
    8.3636    5.2217    4.1670 H   0  0  0  0  0  0  0  0  0  0  0  0
    9.9698    4.4971    3.8484 H   0  0  0  0  0  0  0  0  0  0  0  0
   -8.2902    0.6843   -2.9460 H   0  0  0  0  0  0  0  0  0  0  0  0
   -6.0798   -2.8714   -3.6031 H   0  0  0  0  0  0  0  0  0  0  0  0
   -7.0968    3.6939    0.4527 H   0  0  0  0  0  0  0  0  0  0  0  0
   -2.8450   -4.1659   -0.6517 H   0  0  0  0  0  0  0  0  0  0  0  0
   -3.0450    3.9745    1.6102 H   0  0  0  0  0  0  0  0  0  0  0  0
   -1.4752   -1.7292    2.5238 H   0  0  0  0  0  0  0  0  0  0  0  0
   -1.7198    4.2668    0.2220 H   0  0  0  0  0  0  0  0  0  0  0  0
   -0.0330   -1.6140    0.7585 H   0  0  0  0  0  0  0  0  0  0  0  0
    3.4108   -1.7399    3.1809 H   0  0  0  0  0  0  0  0  0  0  0  0
    1.7987    6.3266   -0.8602 H   0  0  0  0  0  0  0  0  0  0  0  0
    5.9226    5.1988    0.8647 H   0  0  0  0  0  0  0  0  0  0  0  0
    6.6624    1.4280    2.6418 H   0  0  0  0  0  0  0  0  0  0  0  0
    0.2608    3.6365    5.2587 C   0  0  0  0  0  0  0  0  0  0  0  0
    0.7564    2.3975    5.6432 C   0  0  0  0  0  0  0  0  0  0  0  0
    2.1103    2.0526    5.3171 C   0  0  0  0  0  0  0  0  0  0  0  0
    2.9254    3.0831    4.7512 C   0  0  0  0  0  0  0  0  0  0  0  0
    2.3413    4.2910    4.3275 C   0  0  0  0  0  0  0  0  0  0  0  0
    1.0349    4.5684    4.5978 C   0  0  0  0  0  0  0  0  0  0  0  0
    2.7349    0.8052    5.6669 C   0  0  0  0  0  0  0  0  0  0  0  0
    4.1399    0.8456    5.7377 C   0  0  0  0  0  0  0  0  0  0  0  0
    4.8632    1.9773    5.2570 C   0  0  0  0  0  0  0  0  0  0  0  0
    4.2694    3.0360    4.6924 N   0  0  0  0  0  0  0  0  0  0  0  0
    2.1198   -0.4650    5.9676 C   0  0  0  0  0  0  0  0  0  0  0  0
    2.9489   -1.4542    6.5877 C   0  0  0  0  0  0  0  0  0  0  0  0
    4.2751   -1.3325    6.7910 N   0  0  0  0  0  0  0  0  0  0  0  0
    4.8699   -0.2392    6.3018 C   0  0  0  0  0  0  0  0  0  0  0  0
    6.2657   -0.1605    6.3790 C   0  0  0  0  0  0  0  0  0  0  0  0
    6.9468    0.9306    5.8964 C   0  0  0  0  0  0  0  0  0  0  0  0
    6.2607    1.9806    5.3369 C   0  0  0  0  0  0  0  0  0  0  0  0
    0.7883   -0.8772    5.5869 C   0  0  0  0  0  0  0  0  0  0  0  0
    0.3490   -2.1507    5.9364 C   0  0  0  0  0  0  0  0  0  0  0  0
    1.1118   -3.0115    6.7027 C   0  0  0  0  0  0  0  0  0  0  0  0
    2.3990   -2.6808    6.9930 C   0  0  0  0  0  0  0  0  0  0  0  0
   -0.0728    1.5950    6.4008 O   0  0  0  0  0  0  0  0  0  0  0  0
   -0.1098   -0.1219    4.8495 O   0  0  0  0  0  0  0  0  0  0  0  0
    0.3528    6.1848    4.1551 S   0  0  0  0  0  0  0  0  0  0  0  0
    0.4648   -4.5770    7.3777 S   0  0  0  0  0  0  0  0  0  0  0  0
    8.7525    0.9916    5.9985 S   0  0  0  0  0  0  0  0  0  0  0  0
   -2.3588   -2.0758    7.0226 C   0  0  0  0  0  0  0  0  0  0  0  0
   -2.6068   -1.0578    6.1060 C   0  0  0  0  0  0  0  0  0  0  0  0
   -3.3911   -1.3374    4.9271 C   0  0  0  0  0  0  0  0  0  0  0  0
   -3.6766   -2.7160    4.6642 C   0  0  0  0  0  0  0  0  0  0  0  0
   -3.2697   -3.7108    5.5731 C   0  0  0  0  0  0  0  0  0  0  0  0
   -2.6598   -3.3917    6.7493 C   0  0  0  0  0  0  0  0  0  0  0  0
   -4.0918   -0.3563    4.1341 C   0  0  0  0  0  0  0  0  0  0  0  0
   -5.0289   -0.8570    3.2123 C   0  0  0  0  0  0  0  0  0  0  0  0
   -5.0610   -2.2473    2.8982 C   0  0  0  0  0  0  0  0  0  0  0  0
   -4.3912   -3.1595    3.6101 N   0  0  0  0  0  0  0  0  0  0  0  0
   -4.1622    1.0693    4.3434 C   0  0  0  0  0  0  0  0  0  0  0  0
   -5.3792    1.7299    3.9707 C   0  0  0  0  0  0  0  0  0  0  0  0
   -6.2466    1.2438    3.0619 N   0  0  0  0  0  0  0  0  0  0  0  0
   -6.0046    0.0026    2.6143 C   0  0  0  0  0  0  0  0  0  0  0  0
   -6.8364   -0.5169    1.6127 C   0  0  0  0  0  0  0  0  0  0  0  0
   -6.7609   -1.8366    1.2367 C   0  0  0  0  0  0  0  0  0  0  0  0
   -5.9033   -2.6982    1.8747 C   0  0  0  0  0  0  0  0  0  0  0  0
   -3.1209    1.9079    4.8963 C   0  0  0  0  0  0  0  0  0  0  0  0
   -3.4907    3.1087    5.5027 C   0  0  0  0  0  0  0  0  0  0  0  0
   -4.7791    3.6024    5.3742 C   0  0  0  0  0  0  0  0  0  0  0  0
   -5.6760    2.9717    4.5575 C   0  0  0  0  0  0  0  0  0  0  0  0
   -1.9938    0.1306    6.4368 O   0  0  0  0  0  0  0  0  0  0  0  0
   -1.7769    1.6419    4.6829 O   0  0  0  0  0  0  0  0  0  0  0  0
   -2.2051   -4.6957    7.9330 S   0  0  0  0  0  0  0  0  0  0  0  0
   -5.3321    5.0938    6.2352 S   0  0  0  0  0  0  0  0  0  0  0  0
   -7.8170   -2.4883   -0.0735 S   0  0  0  0  0  0  0  0  0  0  0  0
   -0.9985    0.8001    5.5878 B   0  0  0  0  0  0  0  0  0  0  0  0
    8.9022    2.3880    6.5645 O   0  0  0  0  0  0  0  0  0  0  0  0
    8.8819    0.0511    7.3863 O   0  0  0  0  0  0  0  0  0  0  0  0
    8.5571    0.7616    8.5348 C   0  0  0  0  0  0  0  0  0  0  0  0
   -0.2376   -5.1408    5.9571 O   0  0  0  0  0  0  0  0  0  0  0  0
    0.7022   -5.4990    5.0025 C   0  0  0  0  0  0  0  0  0  0  0  0
    1.7617   -5.3653    7.3932 O   0  0  0  0  0  0  0  0  0  0  0  0
   -1.6521   -3.8006    9.0294 O   0  0  0  0  0  0  0  0  0  0  0  0
   -3.7700   -4.9792    8.5056 O   0  0  0  0  0  0  0  0  0  0  0  0
   -4.2457   -3.9454    9.3031 C   0  0  0  0  0  0  0  0  0  0  0  0
   -8.8128   -1.3517   -0.1604 O   0  0  0  0  0  0  0  0  0  0  0  0
   -8.6697   -3.5876    0.8690 O   0  0  0  0  0  0  0  0  0  0  0  0
   -9.4644   -2.9604    1.8196 C   0  0  0  0  0  0  0  0  0  0  0  0
   -6.0939    5.6955    5.0685 O   0  0  0  0  0  0  0  0  0  0  0  0
   -3.8581    5.9057    6.1602 O   0  0  0  0  0  0  0  0  0  0  0  0
   -3.7929    6.7888    5.0939 C   0  0  0  0  0  0  0  0  0  0  0  0
    0.5040    6.1118    2.6482 O   0  0  0  0  0  0  0  0  0  0  0  0
   -1.2497    5.7312    4.3501 O   0  0  0  0  0  0  0  0  0  0  0  0
   -1.6928    4.9595    3.2904 C   0  0  0  0  0  0  0  0  0  0  0  0
  -10.0818   -3.7136    2.3168 H   0  0  0  0  0  0  0  0  0  0  0  0
  -10.1038   -2.2285    1.3154 H   0  0  0  0  0  0  0  0  0  0  0  0
   -8.8332   -2.4568    2.5568 H   0  0  0  0  0  0  0  0  0  0  0  0
   -2.7890    7.2212    5.0519 H   0  0  0  0  0  0  0  0  0  0  0  0
   -4.5466    7.5698    5.2307 H   0  0  0  0  0  0  0  0  0  0  0  0
   -4.0015    6.2373    4.1743 H   0  0  0  0  0  0  0  0  0  0  0  0
   -2.6860    4.5720    3.5273 H   0  0  0  0  0  0  0  0  0  0  0  0
   -0.9989    4.1312    3.1151 H   0  0  0  0  0  0  0  0  0  0  0  0
   -1.7310    5.6032    2.4062 H   0  0  0  0  0  0  0  0  0  0  0  0
   -5.2027   -4.2454    9.7381 H   0  0  0  0  0  0  0  0  0  0  0  0
   -4.3799   -3.0453    8.6979 H   0  0  0  0  0  0  0  0  0  0  0  0
   -3.5170   -3.7553   10.0977 H   0  0  0  0  0  0  0  0  0  0  0  0
    0.1732   -5.8511    4.1119 H   0  0  0  0  0  0  0  0  0  0  0  0
    1.3370   -6.2905    5.4138 H   0  0  0  0  0  0  0  0  0  0  0  0
    1.3143   -4.6282    4.7516 H   0  0  0  0  0  0  0  0  0  0  0  0
    8.7056    0.1175    9.4061 H   0  0  0  0  0  0  0  0  0  0  0  0
    7.5150    1.0887    8.4849 H   0  0  0  0  0  0  0  0  0  0  0  0
    9.2123    1.6364    8.5981 H   0  0  0  0  0  0  0  0  0  0  0  0
   -7.5674    0.1198    1.1456 H   0  0  0  0  0  0  0  0  0  0  0  0
   -5.9137   -3.7445    1.6252 H   0  0  0  0  0  0  0  0  0  0  0  0
   -6.6284    3.4314    4.3589 H   0  0  0  0  0  0  0  0  0  0  0  0
   -3.4946   -4.7387    5.3516 H   0  0  0  0  0  0  0  0  0  0  0  0
   -2.7546    3.6995    6.0157 H   0  0  0  0  0  0  0  0  0  0  0  0
   -1.8235   -1.8375    7.9253 H   0  0  0  0  0  0  0  0  0  0  0  0
   -0.7553    3.8779    5.5043 H   0  0  0  0  0  0  0  0  0  0  0  0
   -0.6085   -2.4754    5.5749 H   0  0  0  0  0  0  0  0  0  0  0  0
    3.0265   -3.3991    7.4931 H   0  0  0  0  0  0  0  0  0  0  0  0
    2.9562    5.0247    3.8362 H   0  0  0  0  0  0  0  0  0  0  0  0
    6.8028    2.8165    4.9321 H   0  0  0  0  0  0  0  0  0  0  0  0
    6.8087   -0.9662    6.8403 H   0  0  0  0  0  0  0  0  0  0  0  0
  1  2  2  0  0  0  0
  1 96  1  0  0  0  0
  2  3  1  0  0  0  0
  3  4  2  0  0  0  0
  3  7  1  0  0  0  0
  4  5  1  0  0  0  0
  5  6  2  0  0  0  0
  5 99  1  0  0  0  0
  6  1  1  0  0  0  0
  6 24  1  0  0  0  0
  7  8  1  0  0  0  0
  7 11  2  0  0  0  0
  8  9  1  0  0  0  0
  9 10  2  0  0  0  0
 10  4  1  0  0  0  0
 11 12  1  0  0  0  0
 11 18  1  0  0  0  0
 12 13  2  0  0  0  0
 13 14  1  0  0  0  0
 14  8  1  0  0  0  0
 14 15  2  0  0  0  0
 15 16  1  0  0  0  0
 15101  1  0  0  0  0
 16 17  2  0  0  0  0
 16 26  1  0  0  0  0
 17  9  1  0  0  0  0
 17100  1  0  0  0  0
 18 19  2  0  0  0  0
 19 20  1  0  0  0  0
 19 97  1  0  0  0  0
 20 21  2  0  0  0  0
 20 25  1  0  0  0  0
 21 12  1  0  0  0  0
 21 98  1  0  0  0  0
 22  2  1  0  0  0  0
 23 18  1  0  0  0  0
 24 69  2  0  0  0  0
 24 70  1  0  0  0  0
 25 57  1  0  0  0  0
 25 59  2  0  0  0  0
 26 54  2  0  0  0  0
 26 55  1  0  0  0  0
 27 28  2  0  0  0  0
 27 95  1  0  0  0  0
 28 29  1  0  0  0  0
 28 48  1  0  0  0  0
 29 30  2  0  0  0  0
 29 33  1  0  0  0  0
 30 31  1  0  0  0  0
 31 32  2  0  0  0  0
 31 93  1  0  0  0  0
 32 27  1  0  0  0  0
 32 50  1  0  0  0  0
 33 37  2  0  0  0  0
 34 33  1  0  0  0  0
 34 35  1  0  0  0  0
 35 36  2  0  0  0  0
 36 30  1  0  0  0  0
 37 38  1  0  0  0  0
 37 44  1  0  0  0  0
 38 39  2  0  0  0  0
 39 40  1  0  0  0  0
 40 34  1  0  0  0  0
 40 41  2  0  0  0  0
 41 42  1  0  0  0  0
 41 90  1  0  0  0  0
 42 43  2  0  0  0  0
 42 52  1  0  0  0  0
 43 35  1  0  0  0  0
 43 91  1  0  0  0  0
 44 45  2  0  0  0  0
 44 49  1  0  0  0  0
 45 46  1  0  0  0  0
 45 94  1  0  0  0  0
 46 47  2  0  0  0  0
 46 51  1  0  0  0  0
 47 38  1  0  0  0  0
 47 92  1  0  0  0  0
 50 60  2  0  0  0  0
 50 61  1  0  0  0  0
 51 66  2  0  0  0  0
 51 67  1  0  0  0  0
 52 63  2  0  0  0  0
 52 64  1  0  0  0  0
 53 49  1  0  0  0  0
 53 22  1  0  0  0  0
 53 48  1  0  0  0  0
 53 23  1  0  0  0  0
 55 56  1  0  0  0  0
 56 87  1  0  0  0  0
 56 88  1  0  0  0  0
 56 89  1  0  0  0  0
 57 58  1  0  0  0  0
 58 84  1  0  0  0  0
 58 85  1  0  0  0  0
 58 86  1  0  0  0  0
 61 62  1  0  0  0  0
 62 81  1  0  0  0  0
 62 82  1  0  0  0  0
 62 83  1  0  0  0  0
 64 65  1  0  0  0  0
 65 72  1  0  0  0  0
 65 73  1  0  0  0  0
 65 74  1  0  0  0  0
 67 68  1  0  0  0  0
 68 75  1  0  0  0  0
 68 76  1  0  0  0  0
 68 77  1  0  0  0  0
 70 71  1  0  0  0  0
 71 78  1  0  0  0  0
 71 79  1  0  0  0  0
 71 80  1  0  0  0  0
102103  2  0  0  0  0
102197  1  0  0  0  0
103104  1  0  0  0  0
104105  2  0  0  0  0
104108  1  0  0  0  0
105106  1  0  0  0  0
106107  2  0  0  0  0
106200  1  0  0  0  0
107102  1  0  0  0  0
107125  1  0  0  0  0
108109  1  0  0  0  0
108112  2  0  0  0  0
109110  1  0  0  0  0
110111  2  0  0  0  0
111105  1  0  0  0  0
112113  1  0  0  0  0
112119  1  0  0  0  0
113114  2  0  0  0  0
114115  1  0  0  0  0
115109  1  0  0  0  0
115116  2  0  0  0  0
116117  1  0  0  0  0
116202  1  0  0  0  0
117118  2  0  0  0  0
117127  1  0  0  0  0
118110  1  0  0  0  0
118201  1  0  0  0  0
119120  2  0  0  0  0
120121  1  0  0  0  0
120198  1  0  0  0  0
121122  2  0  0  0  0
121126  1  0  0  0  0
122113  1  0  0  0  0
122199  1  0  0  0  0
123103  1  0  0  0  0
124119  1  0  0  0  0
125170  2  0  0  0  0
125171  1  0  0  0  0
126158  1  0  0  0  0
126160  2  0  0  0  0
127155  2  0  0  0  0
127156  1  0  0  0  0
128129  2  0  0  0  0
128196  1  0  0  0  0
129130  1  0  0  0  0
129149  1  0  0  0  0
130131  2  0  0  0  0
130134  1  0  0  0  0
131132  1  0  0  0  0
132133  2  0  0  0  0
132194  1  0  0  0  0
133128  1  0  0  0  0
133151  1  0  0  0  0
134138  2  0  0  0  0
135134  1  0  0  0  0
135136  1  0  0  0  0
136137  2  0  0  0  0
137131  1  0  0  0  0
138139  1  0  0  0  0
138145  1  0  0  0  0
139140  2  0  0  0  0
140141  1  0  0  0  0
141135  1  0  0  0  0
141142  2  0  0  0  0
142143  1  0  0  0  0
142191  1  0  0  0  0
143144  2  0  0  0  0
143153  1  0  0  0  0
144136  1  0  0  0  0
144192  1  0  0  0  0
145146  2  0  0  0  0
145150  1  0  0  0  0
146147  1  0  0  0  0
146195  1  0  0  0  0
147148  2  0  0  0  0
147152  1  0  0  0  0
148139  1  0  0  0  0
148193  1  0  0  0  0
151161  2  0  0  0  0
151162  1  0  0  0  0
152167  2  0  0  0  0
152168  1  0  0  0  0
153164  2  0  0  0  0
153165  1  0  0  0  0
154150  1  0  0  0  0
154123  1  0  0  0  0
154149  1  0  0  0  0
154124  1  0  0  0  0
156157  1  0  0  0  0
157188  1  0  0  0  0
157189  1  0  0  0  0
157190  1  0  0  0  0
158159  1  0  0  0  0
159185  1  0  0  0  0
159186  1  0  0  0  0
159187  1  0  0  0  0
162163  1  0  0  0  0
163182  1  0  0  0  0
163183  1  0  0  0  0
163184  1  0  0  0  0
165166  1  0  0  0  0
166173  1  0  0  0  0
166174  1  0  0  0  0
166175  1  0  0  0  0
168169  1  0  0  0  0
169176  1  0  0  0  0
169177  1  0  0  0  0
169178  1  0  0  0  0
171172  1  0  0  0  0
172179  1  0  0  0  0
172180  1  0  0  0  0
172181  1  0  0  0  0
M  CHG  1   8   1
M  CHG  1  53  -1
M  CHG  1 109   1
M  CHG  1 154  -1
M  END
