 energy: -207.101535654771 gnorm: 0.000176112699 xtb: 6.7.1 (edcfbbe)
          03212511053D

101112  0     0  0            999 V2000
   -0.3779    3.8451    1.8526 C   0  0  0  0  0  0  0  0  0  0  0  0
    0.2365    2.6007    1.7759 C   0  0  0  0  0  0  0  0  0  0  0  0
    1.5630    2.5043    1.2888 C   0  0  0  0  0  0  0  0  0  0  0  0
    2.2160    3.7350    0.9102 C   0  0  0  0  0  0  0  0  0  0  0  0
    1.4721    4.9381    0.8075 C   0  0  0  0  0  0  0  0  0  0  0  0
    0.1997    4.9806    1.2920 C   0  0  0  0  0  0  0  0  0  0  0  0
    2.3542    1.3085    1.2914 C   0  0  0  0  0  0  0  0  0  0  0  0
    3.7524    1.5191    1.2798 C   0  0  0  0  0  0  0  0  0  0  0  0
    4.2936    2.7956    0.9479 C   0  0  0  0  0  0  0  0  0  0  0  0
    3.5190    3.8433    0.6889 N   0  0  0  0  0  0  0  0  0  0  0  0
    1.9269   -0.0684    1.3175 C   0  0  0  0  0  0  0  0  0  0  0  0
    2.9200   -1.0251    1.7510 C   0  0  0  0  0  0  0  0  0  0  0  0
    4.1989   -0.7397    1.9577 N   0  0  0  0  0  0  0  0  0  0  0  0
    4.6473    0.4639    1.6145 C   0  0  0  0  0  0  0  0  0  0  0  0
    6.0390    0.6943    1.6145 C   0  0  0  0  0  0  0  0  0  0  0  0
    6.5346    1.9187    1.2149 C   0  0  0  0  0  0  0  0  0  0  0  0
    5.6942    2.9543    0.8688 C   0  0  0  0  0  0  0  0  0  0  0  0
    0.7167   -0.6037    0.7977 C   0  0  0  0  0  0  0  0  0  0  0  0
    0.5716   -1.9958    0.7057 C   0  0  0  0  0  0  0  0  0  0  0  0
    1.4738   -2.8835    1.2752 C   0  0  0  0  0  0  0  0  0  0  0  0
    2.6145   -2.4058    1.8516 C   0  0  0  0  0  0  0  0  0  0  0  0
   -0.4570    1.5336    2.1810 O   0  0  0  0  0  0  0  0  0  0  0  0
   -0.2684    0.1232    0.2662 O   0  0  0  0  0  0  0  0  0  0  0  0
   -0.8814    6.4428    0.9861 S   0  0  0  0  0  0  0  0  0  0  0  0
    1.3492   -4.7153    1.2111 S   0  0  0  0  0  0  0  0  0  0  0  0
    8.3657    2.1849    1.2011 S   0  0  0  0  0  0  0  0  0  0  0  0
   -2.0855   -2.2397    1.9290 C   0  0  0  0  0  0  0  0  0  0  0  0
   -2.5628   -1.1141    1.2612 C   0  0  0  0  0  0  0  0  0  0  0  0
   -3.3474   -1.2570    0.0831 C   0  0  0  0  0  0  0  0  0  0  0  0
   -3.4990   -2.6030   -0.4190 C   0  0  0  0  0  0  0  0  0  0  0  0
   -2.9586   -3.7135    0.2749 C   0  0  0  0  0  0  0  0  0  0  0  0
   -2.2916   -3.5253    1.4474 C   0  0  0  0  0  0  0  0  0  0  0  0
   -4.0961   -0.2218   -0.5805 C   0  0  0  0  0  0  0  0  0  0  0  0
   -4.9726   -0.6596   -1.6015 C   0  0  0  0  0  0  0  0  0  0  0  0
   -4.8887   -1.9834   -2.1222 C   0  0  0  0  0  0  0  0  0  0  0  0
   -4.1534   -2.9158   -1.5336 N   0  0  0  0  0  0  0  0  0  0  0  0
   -4.1934    1.1825   -0.2524 C   0  0  0  0  0  0  0  0  0  0  0  0
   -5.4632    1.8026   -0.5784 C   0  0  0  0  0  0  0  0  0  0  0  0
   -6.3032    1.3249   -1.4834 N   0  0  0  0  0  0  0  0  0  0  0  0
   -5.9956    0.1933   -2.1085 C   0  0  0  0  0  0  0  0  0  0  0  0
   -6.7605   -0.2087   -3.2210 C   0  0  0  0  0  0  0  0  0  0  0  0
   -6.5446   -1.4422   -3.8013 C   0  0  0  0  0  0  0  0  0  0  0  0
   -5.6437   -2.3361   -3.2650 C   0  0  0  0  0  0  0  0  0  0  0  0
   -3.1942    2.0617    0.2506 C   0  0  0  0  0  0  0  0  0  0  0  0
   -3.5815    3.3242    0.7047 C   0  0  0  0  0  0  0  0  0  0  0  0
   -4.8948    3.7766    0.6515 C   0  0  0  0  0  0  0  0  0  0  0  0
   -5.8350    3.0480   -0.0111 C   0  0  0  0  0  0  0  0  0  0  0  0
   -2.2322    0.0642    1.7885 O   0  0  0  0  0  0  0  0  0  0  0  0
   -1.8847    1.8125    0.2149 O   0  0  0  0  0  0  0  0  0  0  0  0
   -1.5162   -4.9481    2.2879 S   0  0  0  0  0  0  0  0  0  0  0  0
   -5.3376    5.3510    1.5052 S   0  0  0  0  0  0  0  0  0  0  0  0
   -7.5448   -1.9517   -5.2711 S   0  0  0  0  0  0  0  0  0  0  0  0
   -1.2217    0.8754    1.1106 B   0  0  0  0  0  0  0  0  0  0  0  0
    8.5141    3.4789    0.5727 O   0  0  0  0  0  0  0  0  0  0  0  0
    8.5029    2.3932    2.8508 O   0  0  0  0  0  0  0  0  0  0  0  0
    8.1132    3.6399    3.3689 C   0  0  0  0  0  0  0  0  0  0  0  0
   -0.1426   -4.8280    0.3935 O   0  0  0  0  0  0  0  0  0  0  0  0
   -0.1160   -5.1723   -0.9702 C   0  0  0  0  0  0  0  0  0  0  0  0
    2.3494   -5.0292    0.2028 O   0  0  0  0  0  0  0  0  0  0  0  0
   -0.3447   -4.3537    2.9296 O   0  0  0  0  0  0  0  0  0  0  0  0
   -2.6606   -5.1190    3.4834 O   0  0  0  0  0  0  0  0  0  0  0  0
   -2.6701   -4.2053    4.5526 C   0  0  0  0  0  0  0  0  0  0  0  0
   -8.3144   -0.7673   -5.5827 O   0  0  0  0  0  0  0  0  0  0  0  0
   -8.5327   -3.0076   -4.4390 O   0  0  0  0  0  0  0  0  0  0  0  0
   -9.5606   -2.4403   -3.6667 C   0  0  0  0  0  0  0  0  0  0  0  0
   -6.6362    5.6825    0.9561 O   0  0  0  0  0  0  0  0  0  0  0  0
   -4.1946    6.3256    0.7907 O   0  0  0  0  0  0  0  0  0  0  0  0
   -4.4544    6.7340   -0.5296 C   0  0  0  0  0  0  0  0  0  0  0  0
    0.0359    7.4768    0.5585 O   0  0  0  0  0  0  0  0  0  0  0  0
   -1.5556    5.7596   -0.3845 O   0  0  0  0  0  0  0  0  0  0  0  0
   -0.7590    5.7188   -1.5385 C   0  0  0  0  0  0  0  0  0  0  0  0
  -10.3867   -3.1494   -3.6463 H   0  0  0  0  0  0  0  0  0  0  0  0
   -9.8962   -1.5033   -4.1234 H   0  0  0  0  0  0  0  0  0  0  0  0
   -9.2134   -2.2445   -2.6476 H   0  0  0  0  0  0  0  0  0  0  0  0
   -3.9523    7.6877   -0.6807 H   0  0  0  0  0  0  0  0  0  0  0  0
   -5.5327    6.8567   -0.6752 H   0  0  0  0  0  0  0  0  0  0  0  0
   -4.0710    5.9951   -1.2377 H   0  0  0  0  0  0  0  0  0  0  0  0
   -1.4182    5.8094   -2.4015 H   0  0  0  0  0  0  0  0  0  0  0  0
   -0.2087    4.7745   -1.5928 H   0  0  0  0  0  0  0  0  0  0  0  0
   -0.0529    6.5559   -1.5338 H   0  0  0  0  0  0  0  0  0  0  0  0
   -3.0569   -4.7274    5.4275 H   0  0  0  0  0  0  0  0  0  0  0  0
   -3.3091   -3.3473    4.3228 H   0  0  0  0  0  0  0  0  0  0  0  0
   -1.6508   -3.8623    4.7527 H   0  0  0  0  0  0  0  0  0  0  0  0
   -0.6507   -6.1122   -1.1169 H   0  0  0  0  0  0  0  0  0  0  0  0
    0.9265   -5.2921   -1.2856 H   0  0  0  0  0  0  0  0  0  0  0  0
   -0.5877   -4.3809   -1.5568 H   0  0  0  0  0  0  0  0  0  0  0  0
    8.7163    3.8312    4.2550 H   0  0  0  0  0  0  0  0  0  0  0  0
    7.0520    3.6315    3.6366 H   0  0  0  0  0  0  0  0  0  0  0  0
    8.2950    4.4252    2.6277 H   0  0  0  0  0  0  0  0  0  0  0  0
   -7.5146    0.4556   -3.6153 H   0  0  0  0  0  0  0  0  0  0  0  0
   -5.5178   -3.3246   -3.6776 H   0  0  0  0  0  0  0  0  0  0  0  0
   -6.8294    3.4263   -0.1858 H   0  0  0  0  0  0  0  0  0  0  0  0
   -3.1123   -4.6925   -0.1472 H   0  0  0  0  0  0  0  0  0  0  0  0
   -2.8195    3.9907    1.0682 H   0  0  0  0  0  0  0  0  0  0  0  0
   -1.4856   -2.0827    2.8125 H   0  0  0  0  0  0  0  0  0  0  0  0
   -1.3440    3.8942    2.3276 H   0  0  0  0  0  0  0  0  0  0  0  0
   -0.2873   -2.3664    0.1711 H   0  0  0  0  0  0  0  0  0  0  0  0
    3.3696   -3.0624    2.2518 H   0  0  0  0  0  0  0  0  0  0  0  0
    1.9548    5.8178    0.4123 H   0  0  0  0  0  0  0  0  0  0  0  0
    6.0996    3.9005    0.5422 H   0  0  0  0  0  0  0  0  0  0  0  0
    6.6932   -0.1075    1.9181 H   0  0  0  0  0  0  0  0  0  0  0  0
  1  2  2  0  0  0  0
  1 96  1  0  0  0  0
  2  3  1  0  0  0  0
  3  4  2  0  0  0  0
  3  7  1  0  0  0  0
  4  5  1  0  0  0  0
  5  6  2  0  0  0  0
  5 99  1  0  0  0  0
  6  1  1  0  0  0  0
  6 24  1  0  0  0  0
  7  8  1  0  0  0  0
  7 11  2  0  0  0  0
  8  9  1  0  0  0  0
  9 10  2  0  0  0  0
 10  4  1  0  0  0  0
 11 12  1  0  0  0  0
 11 18  1  0  0  0  0
 12 13  2  0  0  0  0
 13 14  1  0  0  0  0
 14  8  1  0  0  0  0
 14 15  2  0  0  0  0
 15 16  1  0  0  0  0
 15101  1  0  0  0  0
 16 17  2  0  0  0  0
 16 26  1  0  0  0  0
 17  9  1  0  0  0  0
 17100  1  0  0  0  0
 18 19  2  0  0  0  0
 19 20  1  0  0  0  0
 19 97  1  0  0  0  0
 20 21  2  0  0  0  0
 20 25  1  0  0  0  0
 21 12  1  0  0  0  0
 21 98  1  0  0  0  0
 22  2  1  0  0  0  0
 23 18  1  0  0  0  0
 24 69  2  0  0  0  0
 24 70  1  0  0  0  0
 25 57  1  0  0  0  0
 25 59  2  0  0  0  0
 26 54  2  0  0  0  0
 26 55  1  0  0  0  0
 27 28  2  0  0  0  0
 27 95  1  0  0  0  0
 28 29  1  0  0  0  0
 28 48  1  0  0  0  0
 29 30  2  0  0  0  0
 29 33  1  0  0  0  0
 30 31  1  0  0  0  0
 31 32  2  0  0  0  0
 31 93  1  0  0  0  0
 32 27  1  0  0  0  0
 32 50  1  0  0  0  0
 33 37  2  0  0  0  0
 34 33  1  0  0  0  0
 34 35  1  0  0  0  0
 35 36  2  0  0  0  0
 36 30  1  0  0  0  0
 37 38  1  0  0  0  0
 37 44  1  0  0  0  0
 38 39  2  0  0  0  0
 39 40  1  0  0  0  0
 40 34  1  0  0  0  0
 40 41  2  0  0  0  0
 41 42  1  0  0  0  0
 41 90  1  0  0  0  0
 42 43  2  0  0  0  0
 42 52  1  0  0  0  0
 43 35  1  0  0  0  0
 43 91  1  0  0  0  0
 44 45  2  0  0  0  0
 44 49  1  0  0  0  0
 45 46  1  0  0  0  0
 45 94  1  0  0  0  0
 46 47  2  0  0  0  0
 46 51  1  0  0  0  0
 47 38  1  0  0  0  0
 47 92  1  0  0  0  0
 50 60  2  0  0  0  0
 50 61  1  0  0  0  0
 51 66  2  0  0  0  0
 51 67  1  0  0  0  0
 52 63  2  0  0  0  0
 52 64  1  0  0  0  0
 53 49  1  0  0  0  0
 53 22  1  0  0  0  0
 53 48  1  0  0  0  0
 53 23  1  0  0  0  0
 55 56  1  0  0  0  0
 56 87  1  0  0  0  0
 56 88  1  0  0  0  0
 56 89  1  0  0  0  0
 57 58  1  0  0  0  0
 58 84  1  0  0  0  0
 58 85  1  0  0  0  0
 58 86  1  0  0  0  0
 61 62  1  0  0  0  0
 62 81  1  0  0  0  0
 62 82  1  0  0  0  0
 62 83  1  0  0  0  0
 64 65  1  0  0  0  0
 65 72  1  0  0  0  0
 65 73  1  0  0  0  0
 65 74  1  0  0  0  0
 67 68  1  0  0  0  0
 68 75  1  0  0  0  0
 68 76  1  0  0  0  0
 68 77  1  0  0  0  0
 70 71  1  0  0  0  0
 71 78  1  0  0  0  0
 71 79  1  0  0  0  0
 71 80  1  0  0  0  0
M  CHG  1   8   1
M  CHG  1  53  -1
M  END
