 xtb: 6.7.1 (edcfbbe)
          04042513123D

190212  0     0  0            999 V2000
    1.9290    2.8123    2.1123 C   0  0  0  0  0  0  0  0  0  0  0  0
    1.9644    1.4934    1.6649 C   0  0  0  0  0  0  0  0  0  0  0  0
    2.5570    1.1641    0.4124 C   0  0  0  0  0  0  0  0  0  0  0  0
    2.8126    2.2951   -0.4490 C   0  0  0  0  0  0  0  0  0  0  0  0
    2.6435    3.6387   -0.0043 C   0  0  0  0  0  0  0  0  0  0  0  0
    2.2954    3.8626    1.2875 C   0  0  0  0  0  0  0  0  0  0  0  0
    3.0304   -0.1330   -0.0169 C   0  0  0  0  0  0  0  0  0  0  0  0
    3.7582   -0.1241   -1.2331 C   0  0  0  0  0  0  0  0  0  0  0  0
    3.7815    1.0291   -2.0722 C   0  0  0  0  0  0  0  0  0  0  0  0
    3.2849    2.1890   -1.6804 N   0  0  0  0  0  0  0  0  0  0  0  0
    3.0448   -1.3936    0.7054 C   0  0  0  0  0  0  0  0  0  0  0  0
    4.1230   -2.3042    0.3521 C   0  0  0  0  0  0  0  0  0  0  0  0
    4.7815   -2.2417   -0.7889 N   0  0  0  0  0  0  0  0  0  0  0  0
    4.5548   -1.2408   -1.6238 C   0  0  0  0  0  0  0  0  0  0  0  0
    5.2251   -1.2459   -2.8695 C   0  0  0  0  0  0  0  0  0  0  0  0
    5.1147   -0.1503   -3.6886 C   0  0  0  0  0  0  0  0  0  0  0  0
    4.4259    0.9796   -3.3347 C   0  0  0  0  0  0  0  0  0  0  0  0
    2.1326   -1.9295    1.6617 C   0  0  0  0  0  0  0  0  0  0  0  0
    2.5215   -3.0146    2.4573 C   0  0  0  0  0  0  0  0  0  0  0  0
    3.7155   -3.6709    2.2609 C   0  0  0  0  0  0  0  0  0  0  0  0
    4.5018   -3.3923    1.1919 C   0  0  0  0  0  0  0  0  0  0  0  0
    1.3912    0.5986    2.4614 O   0  0  0  0  0  0  0  0  0  0  0  0
    0.8656   -1.5987    1.8325 O   0  0  0  0  0  0  0  0  0  0  0  0
   -1.0952   -2.3181    3.7395 C   0  0  0  0  0  0  0  0  0  0  0  0
   -1.4738   -1.4084    2.7528 C   0  0  0  0  0  0  0  0  0  0  0  0
   -2.4299   -1.7750    1.7725 C   0  0  0  0  0  0  0  0  0  0  0  0
   -2.9773   -3.1074    1.8457 C   0  0  0  0  0  0  0  0  0  0  0  0
   -2.4783   -4.0398    2.7967 C   0  0  0  0  0  0  0  0  0  0  0  0
   -1.5640   -3.6151    3.7068 C   0  0  0  0  0  0  0  0  0  0  0  0
   -2.9600   -0.8996    0.7644 C   0  0  0  0  0  0  0  0  0  0  0  0
   -4.1126   -1.3520    0.0895 C   0  0  0  0  0  0  0  0  0  0  0  0
   -4.5308   -2.7120    0.2084 C   0  0  0  0  0  0  0  0  0  0  0  0
   -3.9420   -3.5496    1.0491 N   0  0  0  0  0  0  0  0  0  0  0  0
   -2.5106    0.4223    0.4042 C   0  0  0  0  0  0  0  0  0  0  0  0
   -3.5219    1.2985   -0.1371 C   0  0  0  0  0  0  0  0  0  0  0  0
   -4.6532    0.8539   -0.6666 N   0  0  0  0  0  0  0  0  0  0  0  0
   -4.8744   -0.4550   -0.7178 C   0  0  0  0  0  0  0  0  0  0  0  0
   -5.9260   -0.9593   -1.5160 C   0  0  0  0  0  0  0  0  0  0  0  0
   -6.2272   -2.2973   -1.4443 C   0  0  0  0  0  0  0  0  0  0  0  0
   -5.5917   -3.1791   -0.6083 C   0  0  0  0  0  0  0  0  0  0  0  0
   -1.1814    0.9188    0.4294 C   0  0  0  0  0  0  0  0  0  0  0  0
   -0.9745    2.2844    0.2543 C   0  0  0  0  0  0  0  0  0  0  0  0
   -2.0328    3.1401    0.0283 C   0  0  0  0  0  0  0  0  0  0  0  0
   -3.2952    2.7023   -0.2053 C   0  0  0  0  0  0  0  0  0  0  0  0
   -0.8580   -0.2272    2.7404 O   0  0  0  0  0  0  0  0  0  0  0  0
   -0.1092    0.1401    0.5417 O   0  0  0  0  0  0  0  0  0  0  0  0
    0.3488   -0.2556    1.8889 B   0  0  0  0  0  0  0  0  0  0  0  0
    2.3612    5.5684    2.0091 S   0  0  0  0  0  0  0  0  0  0  0  0
    1.4555    5.1041    3.3259 F   0  0  0  0  0  0  0  0  0  0  0  0
    3.7285    5.1036    2.8582 F   0  0  0  0  0  0  0  0  0  0  0  0
    2.5064    6.9981    2.7121 F   0  0  0  0  0  0  0  0  0  0  0  0
    3.3812    6.1122    0.8234 F   0  0  0  0  0  0  0  0  0  0  0  0
    1.1130    6.1334    1.1422 F   0  0  0  0  0  0  0  0  0  0  0  0
    4.1384   -4.9472    3.5246 S   0  0  0  0  0  0  0  0  0  0  0  0
    4.7922   -5.9642    2.3929 F   0  0  0  0  0  0  0  0  0  0  0  0
    5.6376   -4.2467    3.7310 F   0  0  0  0  0  0  0  0  0  0  0  0
    4.5557   -6.0077    4.6442 F   0  0  0  0  0  0  0  0  0  0  0  0
    3.5665   -3.9603    4.7278 F   0  0  0  0  0  0  0  0  0  0  0  0
    2.6900   -5.6950    3.3742 F   0  0  0  0  0  0  0  0  0  0  0  0
    5.9773   -0.1817   -5.3262 S   0  0  0  0  0  0  0  0  0  0  0  0
    4.6496    0.4473   -6.0844 F   0  0  0  0  0  0  0  0  0  0  0  0
    5.4235   -1.7091   -5.6346 F   0  0  0  0  0  0  0  0  0  0  0  0
    6.7058   -0.2187   -6.7557 F   0  0  0  0  0  0  0  0  0  0  0  0
    7.3457   -0.8209   -4.6701 F   0  0  0  0  0  0  0  0  0  0  0  0
    6.5707    1.3400   -5.1201 F   0  0  0  0  0  0  0  0  0  0  0  0
   -0.8502   -4.8114    4.9302 S   0  0  0  0  0  0  0  0  0  0  0  0
   -0.4975   -5.8764    3.7148 F   0  0  0  0  0  0  0  0  0  0  0  0
   -2.3415   -5.5035    5.1261 F   0  0  0  0  0  0  0  0  0  0  0  0
   -0.2713   -5.8615    5.9624 F   0  0  0  0  0  0  0  0  0  0  0  0
   -1.1263   -3.7186    6.1638 F   0  0  0  0  0  0  0  0  0  0  0  0
    0.6666   -4.1275    4.8101 F   0  0  0  0  0  0  0  0  0  0  0  0
   -1.6091    4.9350    0.1423 S   0  0  0  0  0  0  0  0  0  0  0  0
   -2.3841    5.2896   -1.2792 F   0  0  0  0  0  0  0  0  0  0  0  0
   -3.0106    5.2293    0.9805 F   0  0  0  0  0  0  0  0  0  0  0  0
   -1.2759    6.4778    0.2893 F   0  0  0  0  0  0  0  0  0  0  0  0
   -0.8237    4.5863    1.5856 F   0  0  0  0  0  0  0  0  0  0  0  0
   -0.1823    4.7239   -0.6833 F   0  0  0  0  0  0  0  0  0  0  0  0
   -7.6115   -2.9257   -2.4977 S   0  0  0  0  0  0  0  0  0  0  0  0
   -7.0492   -2.0667   -3.7977 F   0  0  0  0  0  0  0  0  0  0  0  0
   -8.6005   -1.6775   -2.1198 F   0  0  0  0  0  0  0  0  0  0  0  0
   -8.7710   -3.4886   -3.4576 F   0  0  0  0  0  0  0  0  0  0  0  0
   -8.2319   -3.8571   -1.2980 F   0  0  0  0  0  0  0  0  0  0  0  0
   -6.6856   -4.2155   -2.9810 F   0  0  0  0  0  0  0  0  0  0  0  0
   -2.8542   -5.0478    2.7726 H   0  0  0  0  0  0  0  0  0  0  0  0
   -5.8786   -4.2162   -0.5551 H   0  0  0  0  0  0  0  0  0  0  0  0
   -6.4777   -0.2860   -2.1502 H   0  0  0  0  0  0  0  0  0  0  0  0
   -0.3867   -1.9936    4.4812 H   0  0  0  0  0  0  0  0  0  0  0  0
    0.0256    2.6705    0.3091 H   0  0  0  0  0  0  0  0  0  0  0  0
    4.3938    1.8520   -3.9672 H   0  0  0  0  0  0  0  0  0  0  0  0
    1.8396   -3.3507    3.2166 H   0  0  0  0  0  0  0  0  0  0  0  0
    5.8308   -2.0976   -3.1333 H   0  0  0  0  0  0  0  0  0  0  0  0
    2.8658    4.4266   -0.7022 H   0  0  0  0  0  0  0  0  0  0  0  0
    5.3729   -3.9652    0.9255 H   0  0  0  0  0  0  0  0  0  0  0  0
   -4.1026    3.3506   -0.4964 H   0  0  0  0  0  0  0  0  0  0  0  0
    1.5174    2.9798    3.0900 H   0  0  0  0  0  0  0  0  0  0  0  0
    0.8164    3.8631    7.6055 C   0  0  0  0  0  0  0  0  0  0  0  0
    1.0317    2.5817    7.0758 C   0  0  0  0  0  0  0  0  0  0  0  0
    2.1396    2.3210    6.2182 C   0  0  0  0  0  0  0  0  0  0  0  0
    2.8682    3.5052    5.7981 C   0  0  0  0  0  0  0  0  0  0  0  0
    2.5893    4.8012    6.3145 C   0  0  0  0  0  0  0  0  0  0  0  0
    1.5926    4.9384    7.2226 C   0  0  0  0  0  0  0  0  0  0  0  0
    2.6836    1.0389    5.8200 C   0  0  0  0  0  0  0  0  0  0  0  0
    3.7907    1.1059    4.9357 C   0  0  0  0  0  0  0  0  0  0  0  0
    4.2306    2.3461    4.3809 C   0  0  0  0  0  0  0  0  0  0  0  0
    3.8369    3.4843    4.9075 N   0  0  0  0  0  0  0  0  0  0  0  0
    2.3777   -0.3112    6.2881 C   0  0  0  0  0  0  0  0  0  0  0  0
    3.4959   -1.2401    6.2271 C   0  0  0  0  0  0  0  0  0  0  0  0
    4.5164   -1.1028    5.4083 N   0  0  0  0  0  0  0  0  0  0  0  0
    4.5756   -0.0429    4.6157 C   0  0  0  0  0  0  0  0  0  0  0  0
    5.4912   -0.0144    3.5446 C   0  0  0  0  0  0  0  0  0  0  0  0
    5.6801    1.1759    2.8833 C   0  0  0  0  0  0  0  0  0  0  0  0
    5.1389    2.3615    3.2961 C   0  0  0  0  0  0  0  0  0  0  0  0
    1.1680   -0.9158    6.7286 C   0  0  0  0  0  0  0  0  0  0  0  0
    1.1993   -2.1828    7.3586 C   0  0  0  0  0  0  0  0  0  0  0  0
    2.3463   -2.9388    7.4494 C   0  0  0  0  0  0  0  0  0  0  0  0
    3.5125   -2.4883    6.9188 C   0  0  0  0  0  0  0  0  0  0  0  0
    0.1398    1.6735    7.4145 O   0  0  0  0  0  0  0  0  0  0  0  0
   -0.0601   -0.5043    6.5130 O   0  0  0  0  0  0  0  0  0  0  0  0
   -2.6103   -1.2949    7.5747 C   0  0  0  0  0  0  0  0  0  0  0  0
   -2.6144   -0.2881    6.6065 C   0  0  0  0  0  0  0  0  0  0  0  0
   -3.2760   -0.4881    5.3721 C   0  0  0  0  0  0  0  0  0  0  0  0
   -3.9512   -1.7527    5.1949 C   0  0  0  0  0  0  0  0  0  0  0  0
   -3.8332   -2.7944    6.1594 C   0  0  0  0  0  0  0  0  0  0  0  0
   -3.1909   -2.5217    7.3237 C   0  0  0  0  0  0  0  0  0  0  0  0
   -3.4513    0.5280    4.3637 C   0  0  0  0  0  0  0  0  0  0  0  0
   -4.5397    0.2953    3.4869 C   0  0  0  0  0  0  0  0  0  0  0  0
   -5.1836   -0.9776    3.4430 C   0  0  0  0  0  0  0  0  0  0  0  0
   -4.7931   -1.9966    4.2010 N   0  0  0  0  0  0  0  0  0  0  0  0
   -2.7778    1.7983    4.2260 C   0  0  0  0  0  0  0  0  0  0  0  0
   -3.5232    2.8278    3.5283 C   0  0  0  0  0  0  0  0  0  0  0  0
   -4.5968    2.5885    2.7938 N   0  0  0  0  0  0  0  0  0  0  0  0
   -5.0767    1.3562    2.7007 C   0  0  0  0  0  0  0  0  0  0  0  0
   -6.2400    1.1464    1.9195 C   0  0  0  0  0  0  0  0  0  0  0  0
   -6.8361   -0.0893    1.9419 C   0  0  0  0  0  0  0  0  0  0  0  0
   -6.3273   -1.1598    2.6329 C   0  0  0  0  0  0  0  0  0  0  0  0
   -1.4621    2.1701    4.6284 C   0  0  0  0  0  0  0  0  0  0  0  0
   -1.0658    3.5107    4.5327 C   0  0  0  0  0  0  0  0  0  0  0  0
   -1.9250    4.5097    4.1135 C   0  0  0  0  0  0  0  0  0  0  0  0
   -3.1398    4.1985    3.5962 C   0  0  0  0  0  0  0  0  0  0  0  0
   -1.9743    0.8397    6.8836 O   0  0  0  0  0  0  0  0  0  0  0  0
   -0.5354    1.3279    5.0674 O   0  0  0  0  0  0  0  0  0  0  0  0
   -0.5728    0.8504    6.4623 B   0  0  0  0  0  0  0  0  0  0  0  0
    1.2643    6.5965    7.9671 S   0  0  0  0  0  0  0  0  0  0  0  0
   -0.3606    6.4750    7.8093 F   0  0  0  0  0  0  0  0  0  0  0  0
    1.1266    5.8962    9.4712 F   0  0  0  0  0  0  0  0  0  0  0  0
    1.0312    8.0117    8.6994 F   0  0  0  0  0  0  0  0  0  0  0  0
    2.8872    6.7952    8.2629 F   0  0  0  0  0  0  0  0  0  0  0  0
    1.4545    7.4141    6.5700 F   0  0  0  0  0  0  0  0  0  0  0  0
    2.2467   -4.6281    8.2012 S   0  0  0  0  0  0  0  0  0  0  0  0
    2.4531   -5.3710    6.7623 F   0  0  0  0  0  0  0  0  0  0  0  0
    3.8872   -4.6609    8.4514 F   0  0  0  0  0  0  0  0  0  0  0  0
    2.2082   -6.0714    8.9070 F   0  0  0  0  0  0  0  0  0  0  0  0
    2.0694   -3.9546    9.7058 F   0  0  0  0  0  0  0  0  0  0  0  0
    0.6275   -4.7208    8.0582 F   0  0  0  0  0  0  0  0  0  0  0  0
    6.6655    1.1782    1.3231 S   0  0  0  0  0  0  0  0  0  0  0  0
    5.4290    1.9902    0.5373 F   0  0  0  0  0  0  0  0  0  0  0  0
    5.9393   -0.2573    0.8571 F   0  0  0  0  0  0  0  0  0  0  0  0
    7.4217    1.1391   -0.0981 F   0  0  0  0  0  0  0  0  0  0  0  0
    7.9159    0.3270    1.9680 F   0  0  0  0  0  0  0  0  0  0  0  0
    7.4164    2.6005    1.6414 F   0  0  0  0  0  0  0  0  0  0  0  0
   -3.0555   -3.7844    8.6699 S   0  0  0  0  0  0  0  0  0  0  0  0
   -2.6299   -5.0073    7.6800 F   0  0  0  0  0  0  0  0  0  0  0  0
   -4.6438   -4.2224    8.4775 F   0  0  0  0  0  0  0  0  0  0  0  0
   -2.9739   -4.8233    9.8931 F   0  0  0  0  0  0  0  0  0  0  0  0
   -3.5421   -2.6514    9.7878 F   0  0  0  0  0  0  0  0  0  0  0  0
   -1.4932   -3.3646    8.9841 F   0  0  0  0  0  0  0  0  0  0  0  0
   -1.4916    6.2800    4.4932 S   0  0  0  0  0  0  0  0  0  0  0  0
   -2.8258    6.8671    3.7163 F   0  0  0  0  0  0  0  0  0  0  0  0
   -2.4104    6.0957    5.8698 F   0  0  0  0  0  0  0  0  0  0  0  0
   -1.1991    7.7796    4.9777 F   0  0  0  0  0  0  0  0  0  0  0  0
   -0.1415    5.8218    5.3512 F   0  0  0  0  0  0  0  0  0  0  0  0
   -0.6008    6.5793    3.1684 F   0  0  0  0  0  0  0  0  0  0  0  0
   -8.4734   -0.3161    1.1050 S   0  0  0  0  0  0  0  0  0  0  0  0
   -7.9233    0.4367   -0.2619 F   0  0  0  0  0  0  0  0  0  0  0  0
   -9.0357    1.1301    1.6635 F   0  0  0  0  0  0  0  0  0  0  0  0
   -9.8706   -0.5358    0.3703 F   0  0  0  0  0  0  0  0  0  0  0  0
   -9.1010   -1.0758    2.4270 F   0  0  0  0  0  0  0  0  0  0  0  0
   -7.9736   -1.7877    0.5071 F   0  0  0  0  0  0  0  0  0  0  0  0
   -4.3133   -3.7383    5.9675 H   0  0  0  0  0  0  0  0  0  0  0  0
   -6.8201   -2.1176    2.6430 H   0  0  0  0  0  0  0  0  0  0  0  0
   -6.6702    1.9799    1.3903 H   0  0  0  0  0  0  0  0  0  0  0  0
   -2.1157   -1.0946    8.5103 H   0  0  0  0  0  0  0  0  0  0  0  0
   -0.0677    3.7578    4.8444 H   0  0  0  0  0  0  0  0  0  0  0  0
    5.3510    3.3074    2.8256 H   0  0  0  0  0  0  0  0  0  0  0  0
    0.2638   -2.5556    7.7420 H   0  0  0  0  0  0  0  0  0  0  0  0
    6.0115   -0.9194    3.2768 H   0  0  0  0  0  0  0  0  0  0  0  0
    3.1612    5.6292    5.9324 H   0  0  0  0  0  0  0  0  0  0  0  0
    4.4129   -3.0755    6.8700 H   0  0  0  0  0  0  0  0  0  0  0  0
   -3.8238    4.9282    3.2004 H   0  0  0  0  0  0  0  0  0  0  0  0
   -0.0085    3.9925    8.2872 H   0  0  0  0  0  0  0  0  0  0  0  0
  1  2  4  0  0  0  0
  2  3  4  0  0  0  0
  3  4  1  0  0  0  0
  4  5  4  0  0  0  0
  1  6  4  0  0  0  0
  5  6  2  0  0  0  0
  3  7  4  0  0  0  0
  7  8  4  0  0  0  0
  8  9  1  0  0  0  0
  4 10  4  0  0  0  0
  9 10  4  0  0  0  0
  7 11  4  0  0  0  0
 11 12  1  0  0  0  0
 12 13  4  0  0  0  0
  8 14  1  0  0  0  0
 13 14  4  0  0  0  0
 14 15  4  0  0  0  0
 15 16  4  0  0  0  0
  9 17  4  0  0  0  0
 16 17  4  0  0  0  0
 11 18  4  0  0  0  0
 18 19  4  0  0  0  0
 19 20  4  0  0  0  0
 12 21  4  0  0  0  0
 20 21  2  0  0  0  0
  2 22  1  0  0  0  0
 18 23  1  0  0  0  0
 24 25  4  0  0  0  0
 25 26  4  0  0  0  0
 26 27  1  0  0  0  0
 27 28  4  0  0  0  0
 24 29  4  0  0  0  0
 28 29  2  0  0  0  0
 26 30  4  0  0  0  0
 30 31  4  0  0  0  0
 31 32  1  0  0  0  0
 27 33  4  0  0  0  0
 32 33  4  0  0  0  0
 30 34  1  0  0  0  0
 34 35  1  0  0  0  0
 35 36  4  0  0  0  0
 31 37  1  0  0  0  0
 36 37  4  0  0  0  0
 37 38  4  0  0  0  0
 38 39  4  0  0  0  0
 32 40  4  0  0  0  0
 39 40  4  0  0  0  0
 34 41  4  0  0  0  0
 41 42  4  0  0  0  0
 42 43  4  0  0  0  0
 35 44  4  0  0  0  0
 43 44  2  0  0  0  0
 25 45  1  0  0  0  0
 41 46  1  0  0  0  0
 22 47  1  0  0  0  0
 23 47  1  0  0  0  0
 45 47  1  0  0  0  0
 46 47  1  0  0  0  0
  6 48  1  0  0  0  0
 48 49  1  0  0  0  0
 48 50  1  0  0  0  0
 48 51  1  0  0  0  0
 48 52  1  0  0  0  0
 48 53  1  0  0  0  0
 20 54  1  0  0  0  0
 54 55  1  0  0  0  0
 54 56  1  0  0  0  0
 54 57  1  0  0  0  0
 54 58  1  0  0  0  0
 54 59  1  0  0  0  0
 16 60  1  0  0  0  0
 60 61  1  0  0  0  0
 60 62  1  0  0  0  0
 60 63  1  0  0  0  0
 60 64  1  0  0  0  0
 60 65  1  0  0  0  0
 29 66  1  0  0  0  0
 66 67  1  0  0  0  0
 66 68  1  0  0  0  0
 66 69  1  0  0  0  0
 66 70  1  0  0  0  0
 66 71  1  0  0  0  0
 43 72  1  0  0  0  0
 72 73  1  0  0  0  0
 72 74  1  0  0  0  0
 72 75  1  0  0  0  0
 72 76  1  0  0  0  0
 72 77  1  0  0  0  0
 39 78  1  0  0  0  0
 78 79  1  0  0  0  0
 78 80  1  0  0  0  0
 78 81  1  0  0  0  0
 78 82  1  0  0  0  0
 78 83  1  0  0  0  0
 28 84  1  0  0  0  0
 40 85  1  0  0  0  0
 38 86  1  0  0  0  0
 24 87  1  0  0  0  0
 42 88  1  0  0  0  0
 17 89  1  0  0  0  0
 19 90  1  0  0  0  0
 15 91  1  0  0  0  0
  5 92  1  0  0  0  0
 21 93  1  0  0  0  0
 44 94  1  0  0  0  0
  1 95  1  0  0  0  0
 96 97  4  0  0  0  0
 97 98  4  0  0  0  0
 98 99  1  0  0  0  0
 99100  4  0  0  0  0
 96101  4  0  0  0  0
100101  2  0  0  0  0
 98102  4  0  0  0  0
102103  4  0  0  0  0
103104  1  0  0  0  0
 99105  4  0  0  0  0
104105  4  0  0  0  0
102106  1  0  0  0  0
106107  1  0  0  0  0
107108  4  0  0  0  0
103109  1  0  0  0  0
108109  4  0  0  0  0
109110  4  0  0  0  0
110111  4  0  0  0  0
104112  4  0  0  0  0
111112  4  0  0  0  0
106113  4  0  0  0  0
113114  4  0  0  0  0
114115  4  0  0  0  0
107116  1  0  0  0  0
115116  2  0  0  0  0
 97117  1  0  0  0  0
113118  1  0  0  0  0
119120  4  0  0  0  0
120121  4  0  0  0  0
121122  1  0  0  0  0
122123  4  0  0  0  0
119124  4  0  0  0  0
123124  2  0  0  0  0
121125  4  0  0  0  0
125126  4  0  0  0  0
126127  1  0  0  0  0
122128  4  0  0  0  0
127128  4  0  0  0  0
125129  4  0  0  0  0
129130  1  0  0  0  0
130131  4  0  0  0  0
126132  1  0  0  0  0
131132  4  0  0  0  0
132133  4  0  0  0  0
133134  4  0  0  0  0
127135  4  0  0  0  0
134135  4  0  0  0  0
129136  4  0  0  0  0
136137  4  0  0  0  0
137138  4  0  0  0  0
130139  1  0  0  0  0
138139  2  0  0  0  0
120140  1  0  0  0  0
136141  1  0  0  0  0
117142  1  0  0  0  0
118142  1  0  0  0  0
140142  1  0  0  0  0
141142  1  0  0  0  0
101143  1  0  0  0  0
143144  1  0  0  0  0
143145  1  0  0  0  0
143146  1  0  0  0  0
143147  1  0  0  0  0
143148  1  0  0  0  0
115149  1  0  0  0  0
149150  1  0  0  0  0
149151  1  0  0  0  0
149152  1  0  0  0  0
149153  1  0  0  0  0
149154  1  0  0  0  0
111155  1  0  0  0  0
155156  1  0  0  0  0
155157  1  0  0  0  0
155158  1  0  0  0  0
155159  1  0  0  0  0
155160  1  0  0  0  0
124161  1  0  0  0  0
161162  1  0  0  0  0
161163  1  0  0  0  0
161164  1  0  0  0  0
161165  1  0  0  0  0
161166  1  0  0  0  0
138167  1  0  0  0  0
167168  1  0  0  0  0
167169  1  0  0  0  0
167170  1  0  0  0  0
167171  1  0  0  0  0
167172  1  0  0  0  0
134173  1  0  0  0  0
173174  1  0  0  0  0
173175  1  0  0  0  0
173176  1  0  0  0  0
173177  1  0  0  0  0
173178  1  0  0  0  0
123179  1  0  0  0  0
135180  1  0  0  0  0
133181  1  0  0  0  0
119182  1  0  0  0  0
137183  1  0  0  0  0
112184  1  0  0  0  0
114185  1  0  0  0  0
110186  1  0  0  0  0
100187  1  0  0  0  0
116188  1  0  0  0  0
139189  1  0  0  0  0
 96190  1  0  0  0  0
M  CHG  1  13   1
M  CHG  1  47  -1
M  CHG  1 108   1
M  CHG  1 142  -1
M  END
