 xtb: 6.7.1 (edcfbbe)
          02062516213D

 68 73  0     0  0            999 V2000
   -1.2345    1.8106   -0.0293 C   0  0  0  0  0  0  0  0  0  0  0  0
   -1.2546    0.4312   -0.0335 C   0  0  0  0  0  0  0  0  0  0  0  0
   -0.0513   -0.2733   -0.0421 C   0  0  0  0  0  0  0  0  0  0  0  0
    1.2068    0.3820   -0.0445 C   0  0  0  0  0  0  0  0  0  0  0  0
    1.1816    1.7903   -0.0389 C   0  0  0  0  0  0  0  0  0  0  0  0
   -0.0086    2.4975   -0.0334 C   0  0  0  0  0  0  0  0  0  0  0  0
   -0.0717   -1.6808   -0.0566 C   0  0  0  0  0  0  0  0  0  0  0  0
    1.1441   -2.3853   -0.0745 C   0  0  0  0  0  0  0  0  0  0  0  0
    2.3514   -1.6432   -0.0712 C   0  0  0  0  0  0  0  0  0  0  0  0
    2.3778   -0.2913   -0.0553 N   0  0  0  0  0  0  0  0  0  0  0  0
   -1.3049   -2.3504   -0.0675 C   0  0  0  0  0  0  0  0  0  0  0  0
   -1.3364   -3.7579   -0.0962 C   0  0  0  0  0  0  0  0  0  0  0  0
   -0.1185   -4.4247   -0.1036 N   0  0  0  0  0  0  0  0  0  0  0  0
    1.1269   -3.7845   -0.1007 C   0  0  0  0  0  0  0  0  0  0  0  0
    2.3242   -4.4720   -0.1218 C   0  0  0  0  0  0  0  0  0  0  0  0
    3.5440   -3.7725   -0.1149 C   0  0  0  0  0  0  0  0  0  0  0  0
    3.5473   -2.3887   -0.0898 C   0  0  0  0  0  0  0  0  0  0  0  0
   -2.4977   -1.6149   -0.0562 C   0  0  0  0  0  0  0  0  0  0  0  0
   -3.7117   -2.2779   -0.0714 C   0  0  0  0  0  0  0  0  0  0  0  0
   -3.7614   -3.6740   -0.1010 C   0  0  0  0  0  0  0  0  0  0  0  0
   -2.5567   -4.4010   -0.1142 C   0  0  0  0  0  0  0  0  0  0  0  0
   -0.0515    4.0220   -0.0336 C   0  0  0  0  0  0  0  0  0  0  0  0
   -5.0737   -4.4430   -0.1248 C   0  0  0  0  0  0  0  0  0  0  0  0
    4.8311   -4.5903   -0.1439 C   0  0  0  0  0  0  0  0  0  0  0  0
   -6.3001   -3.5270   -0.0955 C   0  0  0  0  0  0  0  0  0  0  0  0
   -5.1478   -5.2863   -1.4073 C   0  0  0  0  0  0  0  0  0  0  0  0
   -5.1497   -5.3682    1.0999 C   0  0  0  0  0  0  0  0  0  0  0  0
    4.8705   -5.4281   -1.4307 C   0  0  0  0  0  0  0  0  0  0  0  0
    6.0911   -3.7208   -0.1130 C   0  0  0  0  0  0  0  0  0  0  0  0
    4.8760   -5.5210    1.0772 C   0  0  0  0  0  0  0  0  0  0  0  0
   -0.7821    4.5102    1.2259 C   0  0  0  0  0  0  0  0  0  0  0  0
   -0.7994    4.5095   -1.2833 C   0  0  0  0  0  0  0  0  0  0  0  0
    1.3413    4.6584   -0.0442 C   0  0  0  0  0  0  0  0  0  0  0  0
    2.1368    2.2887   -0.0417 H   0  0  0  0  0  0  0  0  0  0  0  0
   -2.1758    2.3393   -0.0241 H   0  0  0  0  0  0  0  0  0  0  0  0
    4.4651   -1.8248   -0.0858 H   0  0  0  0  0  0  0  0  0  0  0  0
    2.3069   -5.5544   -0.1449 H   0  0  0  0  0  0  0  0  0  0  0  0
   -2.5738   -5.4829   -0.1394 H   0  0  0  0  0  0  0  0  0  0  0  0
   -4.6080   -1.6804   -0.0605 H   0  0  0  0  0  0  0  0  0  0  0  0
    1.9070    4.3659    0.8368 H   0  0  0  0  0  0  0  0  0  0  0  0
    1.8950    4.3619   -0.9315 H   0  0  0  0  0  0  0  0  0  0  0  0
    1.2491    5.7450   -0.0459 H   0  0  0  0  0  0  0  0  0  0  0  0
   -1.8180    4.1325   -1.3020 H   0  0  0  0  0  0  0  0  0  0  0  0
   -0.8353    5.5990   -1.3081 H   0  0  0  0  0  0  0  0  0  0  0  0
   -0.2920    4.1578   -2.1793 H   0  0  0  0  0  0  0  0  0  0  0  0
   -1.8001    4.1325    1.2587 H   0  0  0  0  0  0  0  0  0  0  0  0
   -0.8182    5.5997    1.2506 H   0  0  0  0  0  0  0  0  0  0  0  0
   -0.2622    4.1591    2.1150 H   0  0  0  0  0  0  0  0  0  0  0  0
    4.0262   -6.1103   -1.4808 H   0  0  0  0  0  0  0  0  0  0  0  0
    5.7886   -6.0142   -1.4797 H   0  0  0  0  0  0  0  0  0  0  0  0
    4.8285   -4.7740   -2.2992 H   0  0  0  0  0  0  0  0  0  0  0  0
    4.0389   -6.2138    1.0757 H   0  0  0  0  0  0  0  0  0  0  0  0
    5.7995   -6.1007    1.0832 H   0  0  0  0  0  0  0  0  0  0  0  0
    4.8278   -4.9341    1.9921 H   0  0  0  0  0  0  0  0  0  0  0  0
    6.9773   -4.3562   -0.1290 H   0  0  0  0  0  0  0  0  0  0  0  0
    6.1282   -3.0627   -0.9774 H   0  0  0  0  0  0  0  0  0  0  0  0
    6.1208   -3.1163    0.7901 H   0  0  0  0  0  0  0  0  0  0  0  0
   -5.0789   -4.7819    2.0132 H   0  0  0  0  0  0  0  0  0  0  0  0
   -4.3366   -6.0881    1.0972 H   0  0  0  0  0  0  0  0  0  0  0  0
   -6.0922   -5.9155    1.1088 H   0  0  0  0  0  0  0  0  0  0  0  0
   -5.0883   -4.6395   -2.2805 H   0  0  0  0  0  0  0  0  0  0  0  0
   -4.3267   -5.9962   -1.4566 H   0  0  0  0  0  0  0  0  0  0  0  0
   -6.0850   -5.8416   -1.4477 H   0  0  0  0  0  0  0  0  0  0  0  0
   -6.3133   -2.8695   -0.9613 H   0  0  0  0  0  0  0  0  0  0  0  0
   -6.3100   -2.9219    0.8077 H   0  0  0  0  0  0  0  0  0  0  0  0
   -7.2087   -4.1291   -0.1120 H   0  0  0  0  0  0  0  0  0  0  0  0
   -2.4849   -0.2298   -0.0310 O   0  0  0  0  0  0  0  0  0  0  0  0
   -0.1299   -5.4323   -0.1395 H   0  0  0  0  0  0  0  0  0  0  0  0
  1  2  4  0  0  0  0
  2  3  4  0  0  0  0
  3  4  4  0  0  0  0
  4  5  4  0  0  0  0
  1  6  4  0  0  0  0
  5  6  4  0  0  0  0
  3  7  4  0  0  0  0
  7  8  4  0  0  0  0
  8  9  4  0  0  0  0
  4 10  4  0  0  0  0
  9 10  4  0  0  0  0
  7 11  4  0  0  0  0
 11 12  4  0  0  0  0
 12 13  1  0  0  0  0
  8 14  4  0  0  0  0
 13 14  1  0  0  0  0
 14 15  4  0  0  0  0
 15 16  4  0  0  0  0
  9 17  4  0  0  0  0
 16 17  4  0  0  0  0
 11 18  4  0  0  0  0
 18 19  4  0  0  0  0
 19 20  4  0  0  0  0
 12 21  4  0  0  0  0
 20 21  4  0  0  0  0
  6 22  1  0  0  0  0
 20 23  1  0  0  0  0
 16 24  1  0  0  0  0
 23 25  1  0  0  0  0
 23 26  1  0  0  0  0
 23 27  1  0  0  0  0
 24 28  1  0  0  0  0
 24 29  1  0  0  0  0
 24 30  1  0  0  0  0
 22 31  1  0  0  0  0
 22 32  1  0  0  0  0
 22 33  1  0  0  0  0
  5 34  1  0  0  0  0
  1 35  1  0  0  0  0
 17 36  1  0  0  0  0
 15 37  1  0  0  0  0
 21 38  1  0  0  0  0
 19 39  1  0  0  0  0
 33 40  1  0  0  0  0
 33 41  1  0  0  0  0
 33 42  1  0  0  0  0
 32 43  1  0  0  0  0
 32 44  1  0  0  0  0
 32 45  1  0  0  0  0
 31 46  1  0  0  0  0
 31 47  1  0  0  0  0
 31 48  1  0  0  0  0
 28 49  1  0  0  0  0
 28 50  1  0  0  0  0
 28 51  1  0  0  0  0
 30 52  1  0  0  0  0
 30 53  1  0  0  0  0
 30 54  1  0  0  0  0
 29 55  1  0  0  0  0
 29 56  1  0  0  0  0
 29 57  1  0  0  0  0
 27 58  1  0  0  0  0
 27 59  1  0  0  0  0
 27 60  1  0  0  0  0
 26 61  1  0  0  0  0
 26 62  1  0  0  0  0
 26 63  1  0  0  0  0
 25 64  1  0  0  0  0
 25 65  1  0  0  0  0
 25 66  1  0  0  0  0
  2 67  1  0  0  0  0
 18 67  1  0  0  0  0
 13 68  1  0  0  0  0
M  CHG  1   1  -1
M  END
