ClosedN.mol
  ChemDraw02062514043D

  0  0  0     0  0              0 V3000
M  V30 BEGIN CTAB
M  V30 COUNTS 68 73 0 0 0
M  V30 BEGIN ATOM
M  V30 1 C -1.507734 2.428071 -0.543375 0
M  V30 2 C -1.466602 0.760598 -0.802160 0
M  V30 3 C 0.008341 -0.031930 -0.590034 0
M  V30 4 C 1.459097 0.797497 -0.361668 0
M  V30 5 C 1.408835 2.477395 -0.206552 0
M  V30 6 C -0.079350 3.275125 -0.236377 0
M  V30 7 C 0.028643 -1.713256 -0.535160 0
M  V30 8 C 1.469779 -2.563114 -0.344199 0
M  V30 9 C 2.913194 -1.692116 -0.273862 0
M  V30 10 N 2.883234 -0.038166 -0.262882 0
M  V30 11 C -1.539012 -2.552710 -0.547315 0
M  V30 12 C -1.576551 -4.210835 -0.246677 0
M  V30 13 N -0.085632 -5.080055 -0.111888 0
M  V30 14 C 1.427884 -4.243531 -0.191550 0
M  V30 15 C 2.890680 -5.079341 -0.088438 0
M  V30 16 C 4.350013 -4.229411 -0.100490 0
M  V30 17 C 4.368626 -2.542177 -0.178083 0
M  V30 18 C -2.933242 -1.636385 -0.789972 0
M  V30 19 C -4.424271 -2.390250 -0.551035 0
M  V30 20 C -4.489670 -4.042801 -0.206154 0
M  V30 21 C -3.078197 -4.961487 -0.074093 0
M  V30 22 C -0.150841 5.066642 0.067995 0
M  V30 23 C -6.106676 -4.852528 -0.013864 0
M  V30 24 C 5.914258 -5.152496 -0.010154 0
M  V30 25 C -7.334214 -3.650927 0.680510 0
M  V30 26 C -6.690187 -5.439869 -1.671204 0
M  V30 27 C -5.955658 -6.302865 1.129132 0
M  V30 28 C 6.048348 -6.283286 -1.471466 0
M  V30 29 C 7.343467 -3.973611 -0.012606 0
M  V30 30 C 5.939054 -6.155437 1.547487 0
M  V30 31 C -1.111415 5.370040 1.622907 0
M  V30 32 C -0.986958 5.917956 -1.349335 0
M  V30 33 C 1.563012 5.742689 0.263989 0
M  V30 34 H 2.523885 3.161174 -0.033882 0
M  V30 35 H -2.654481 3.077054 -0.612067 0
M  V30 36 H 5.515061 -1.888784 -0.155992 0
M  V30 37 H 2.895801 -6.395586 0.005508 0
M  V30 38 H -3.146566 -6.257210 0.165523 0
M  V30 39 H -5.535282 -1.688168 -0.669108 0
M  V30 40 H 2.169766 5.144353 1.316055 0
M  V30 41 H 2.268500 5.510426 -0.867906 0
M  V30 42 H 1.497287 7.077494 0.480640 0
M  V30 43 H -2.227506 5.403958 -1.520568 0
M  V30 44 H -1.080378 7.243032 -1.088269 0
M  V30 45 H -0.262007 5.734492 -2.477626 0
M  V30 46 H -2.415178 5.071025 1.413372 0
M  V30 47 H -0.998070 6.669818 1.984605 0
M  V30 48 H -0.622329 4.582536 2.609757 0
M  V30 49 H 4.994941 -7.133341 -1.480316 0
M  V30 50 H 7.198377 -6.992861 -1.391545 0
M  V30 51 H 6.047586 -5.550713 -2.609757 0
M  V30 52 H 4.999347 -7.127322 1.471637 0
M  V30 53 H 7.161260 -6.716000 1.706298 0
M  V30 54 H 5.668713 -5.350684 2.602208 0
M  V30 55 H 8.502739 -4.672238 0.012810 0
M  V30 56 H 7.300728 -3.215847 -1.133578 0
M  V30 57 H 7.273566 -3.176721 1.079438 0
M  V30 58 H -5.424905 -5.900775 2.307879 0
M  V30 59 H -5.159931 -7.243032 0.567336 0
M  V30 60 H -7.184634 -6.829013 1.342830 0
M  V30 61 H -6.784558 -4.384846 -2.514379 0
M  V30 62 H -5.802529 -6.334196 -2.166417 0
M  V30 63 H -7.902700 -6.027248 -1.538492 0
M  V30 64 H -7.544708 -2.651036 -0.207519 0
M  V30 65 H -6.861081 -3.137901 1.840571 0
M  V30 66 H -8.502739 -4.293075 0.915098 0
M  V30 67 O -2.847649 -0.044613 -1.375112 0
M  V30 68 H -0.100692 -6.335917 0.060478 0
M  V30 END ATOM
M  V30 BEGIN BOND
M  V30 1 2 1 2
M  V30 2 1 1 35
M  V30 3 1 2 3
M  V30 4 2 3 7
M  V30 5 1 4 5
M  V30 6 2 5 6
M  V30 7 1 5 34
M  V30 8 1 6 1
M  V30 9 1 6 22
M  V30 10 1 8 9
M  V30 11 2 10 4
M  V30 12 2 11 12
M  V30 13 1 11 18
M  V30 14 1 13 14
M  V30 15 2 14 8
M  V30 16 2 15 16
M  V30 17 1 15 37
M  V30 18 1 16 24
M  V30 19 2 17 9
M  V30 20 1 17 36
M  V30 21 2 18 19
M  V30 22 1 19 20
M  V30 23 1 19 39
M  V30 24 2 20 21
M  V30 25 1 20 23
M  V30 26 1 21 12
M  V30 27 1 21 38
M  V30 28 1 22 31
M  V30 29 1 22 32
M  V30 30 1 22 33
M  V30 31 1 23 25
M  V30 32 1 23 26
M  V30 33 1 23 27
M  V30 34 1 24 28
M  V30 35 1 24 29
M  V30 36 1 24 30
M  V30 37 1 25 64
M  V30 38 1 25 65
M  V30 39 1 25 66
M  V30 40 1 26 61
M  V30 41 1 26 62
M  V30 42 1 26 63
M  V30 43 1 27 58
M  V30 44 1 27 59
M  V30 45 1 27 60
M  V30 46 1 28 49
M  V30 47 1 28 50
M  V30 48 1 28 51
M  V30 49 1 29 55
M  V30 50 1 29 56
M  V30 51 1 29 57
M  V30 52 1 30 52
M  V30 53 1 30 53
M  V30 54 1 30 54
M  V30 55 1 31 46
M  V30 56 1 31 47
M  V30 57 1 31 48
M  V30 58 1 32 43
M  V30 59 1 32 44
M  V30 60 1 32 45
M  V30 61 1 33 40
M  V30 62 1 33 41
M  V30 63 1 33 42
M  V30 64 1 18 67
M  V30 65 1 67 2
M  V30 66 1 12 13
M  V30 67 1 10 9
M  V30 68 1 17 16
M  V30 69 1 14 15
M  V30 70 1 3 4
M  V30 71 1 11 7
M  V30 72 1 7 8
M  V30 73 1 13 68
M  V30 END BOND
M  V30 END CTAB
M  END
