 xtb: 6.7.1 (edcfbbe)
          02062516213D

 68 73  0     0  0            999 V2000
   -1.2362    1.7915   -0.0115 C   0  0  0  0  0  0  0  0  0  0  0  0
   -1.2663    0.4220   -0.0165 C   0  0  0  0  0  0  0  0  0  0  0  0
   -0.0480   -0.2869   -0.0269 C   0  0  0  0  0  0  0  0  0  0  0  0
    1.2110    0.3751   -0.0274 C   0  0  0  0  0  0  0  0  0  0  0  0
    1.1850    1.7885   -0.0224 C   0  0  0  0  0  0  0  0  0  0  0  0
   -0.0004    2.4827   -0.0191 C   0  0  0  0  0  0  0  0  0  0  0  0
   -0.0619   -1.6773   -0.0475 C   0  0  0  0  0  0  0  0  0  0  0  0
    1.1335   -2.3806   -0.0668 C   0  0  0  0  0  0  0  0  0  0  0  0
    2.3487   -1.6386   -0.0601 C   0  0  0  0  0  0  0  0  0  0  0  0
    2.3648   -0.3010   -0.0402 N   0  0  0  0  0  0  0  0  0  0  0  0
   -1.3082   -2.3567   -0.0594 C   0  0  0  0  0  0  0  0  0  0  0  0
   -1.3247   -3.7588   -0.0932 C   0  0  0  0  0  0  0  0  0  0  0  0
   -0.1213   -4.4218   -0.1090 N   0  0  0  0  0  0  0  0  0  0  0  0
    1.1155   -3.7944   -0.0993 C   0  0  0  0  0  0  0  0  0  0  0  0
    2.3132   -4.4652   -0.1231 C   0  0  0  0  0  0  0  0  0  0  0  0
    3.5386   -3.7588   -0.1143 C   0  0  0  0  0  0  0  0  0  0  0  0
    3.5488   -2.3847   -0.0823 C   0  0  0  0  0  0  0  0  0  0  0  0
   -2.4889   -1.6111   -0.0449 C   0  0  0  0  0  0  0  0  0  0  0  0
   -3.7064   -2.2792   -0.0630 C   0  0  0  0  0  0  0  0  0  0  0  0
   -3.7452   -3.6715   -0.0986 C   0  0  0  0  0  0  0  0  0  0  0  0
   -2.5568   -4.4007   -0.1126 C   0  0  0  0  0  0  0  0  0  0  0  0
   -0.0515    4.0042   -0.0317 C   0  0  0  0  0  0  0  0  0  0  0  0
   -5.0625   -4.4340   -0.1302 C   0  0  0  0  0  0  0  0  0  0  0  0
    4.8214   -4.5786   -0.1478 C   0  0  0  0  0  0  0  0  0  0  0  0
   -6.2841   -3.5121   -0.1053 C   0  0  0  0  0  0  0  0  0  0  0  0
   -5.1243   -5.2685   -1.4177 C   0  0  0  0  0  0  0  0  0  0  0  0
   -5.1389   -5.3570    1.0946 C   0  0  0  0  0  0  0  0  0  0  0  0
    4.8470   -5.4157   -1.4347 C   0  0  0  0  0  0  0  0  0  0  0  0
    6.0804   -3.7082   -0.1261 C   0  0  0  0  0  0  0  0  0  0  0  0
    4.8632   -5.5013    1.0786 C   0  0  0  0  0  0  0  0  0  0  0  0
   -0.7852    4.4936    1.2247 C   0  0  0  0  0  0  0  0  0  0  0  0
   -0.8009    4.4673   -1.2894 C   0  0  0  0  0  0  0  0  0  0  0  0
    1.3397    4.6426   -0.0482 C   0  0  0  0  0  0  0  0  0  0  0  0
    2.1388    2.2859   -0.0262 H   0  0  0  0  0  0  0  0  0  0  0  0
   -2.1700    2.3287   -0.0052 H   0  0  0  0  0  0  0  0  0  0  0  0
    4.4641   -1.8201   -0.0759 H   0  0  0  0  0  0  0  0  0  0  0  0
    2.3099   -5.5445   -0.1502 H   0  0  0  0  0  0  0  0  0  0  0  0
   -2.5781   -5.4794   -0.1410 H   0  0  0  0  0  0  0  0  0  0  0  0
   -4.6039   -1.6872   -0.0514 H   0  0  0  0  0  0  0  0  0  0  0  0
    1.9060    4.3684    0.8383 H   0  0  0  0  0  0  0  0  0  0  0  0
    1.8962    4.3432   -0.9327 H   0  0  0  0  0  0  0  0  0  0  0  0
    1.2401    5.7262   -0.0632 H   0  0  0  0  0  0  0  0  0  0  0  0
   -1.8238    4.1022   -1.3024 H   0  0  0  0  0  0  0  0  0  0  0  0
   -0.8273    5.5542   -1.3299 H   0  0  0  0  0  0  0  0  0  0  0  0
   -0.2966    4.1003   -2.1809 H   0  0  0  0  0  0  0  0  0  0  0  0
   -1.8092    4.1324    1.2556 H   0  0  0  0  0  0  0  0  0  0  0  0
   -0.8076    5.5813    1.2443 H   0  0  0  0  0  0  0  0  0  0  0  0
   -0.2723    4.1424    2.1175 H   0  0  0  0  0  0  0  0  0  0  0  0
    4.0114   -6.1088   -1.4788 H   0  0  0  0  0  0  0  0  0  0  0  0
    5.7684   -5.9917   -1.4882 H   0  0  0  0  0  0  0  0  0  0  0  0
    4.7955   -4.7643   -2.3044 H   0  0  0  0  0  0  0  0  0  0  0  0
    4.0351   -6.2047    1.0805 H   0  0  0  0  0  0  0  0  0  0  0  0
    5.7905   -6.0704    1.0867 H   0  0  0  0  0  0  0  0  0  0  0  0
    4.8118   -4.9116    1.9914 H   0  0  0  0  0  0  0  0  0  0  0  0
    6.9617   -4.3465   -0.1498 H   0  0  0  0  0  0  0  0  0  0  0  0
    6.1165   -3.0520   -0.9920 H   0  0  0  0  0  0  0  0  0  0  0  0
    6.1237   -3.1068    0.7783 H   0  0  0  0  0  0  0  0  0  0  0  0
   -5.0642   -4.7732    2.0093 H   0  0  0  0  0  0  0  0  0  0  0  0
   -4.3383   -6.0912    1.0927 H   0  0  0  0  0  0  0  0  0  0  0  0
   -6.0872   -5.8896    1.1012 H   0  0  0  0  0  0  0  0  0  0  0  0
   -5.0452   -4.6205   -2.2881 H   0  0  0  0  0  0  0  0  0  0  0  0
   -4.3195   -5.9969   -1.4608 H   0  0  0  0  0  0  0  0  0  0  0  0
   -6.0699   -5.8035   -1.4704 H   0  0  0  0  0  0  0  0  0  0  0  0
   -6.2957   -2.8531   -0.9699 H   0  0  0  0  0  0  0  0  0  0  0  0
   -6.3048   -2.9135    0.8019 H   0  0  0  0  0  0  0  0  0  0  0  0
   -7.1904   -4.1139   -0.1306 H   0  0  0  0  0  0  0  0  0  0  0  0
   -2.4698   -0.2496   -0.0172 O   0  0  0  0  0  0  0  0  0  0  0  0
   -0.1353   -5.4311   -0.1365 H   0  0  0  0  0  0  0  0  0  0  0  0
  1  2  4  0  0  0  0
  2  3  4  0  0  0  0
  3  4  1  0  0  0  0
  4  5  4  0  0  0  0
  1  6  4  0  0  0  0
  5  6  2  0  0  0  0
  3  7  4  0  0  0  0
  7  8  4  0  0  0  0
  8  9  1  0  0  0  0
  4 10  4  0  0  0  0
  9 10  4  0  0  0  0
  7 11  1  0  0  0  0
 11 12  4  0  0  0  0
 12 13  1  0  0  0  0
  8 14  4  0  0  0  0
 13 14  1  0  0  0  0
 14 15  4  0  0  0  0
 15 16  4  0  0  0  0
  9 17  4  0  0  0  0
 16 17  2  0  0  0  0
 11 18  4  0  0  0  0
 18 19  4  0  0  0  0
 19 20  4  0  0  0  0
 12 21  4  0  0  0  0
 20 21  4  0  0  0  0
  6 22  1  0  0  0  0
 20 23  1  0  0  0  0
 16 24  1  0  0  0  0
 23 25  1  0  0  0  0
 23 26  1  0  0  0  0
 23 27  1  0  0  0  0
 24 28  1  0  0  0  0
 24 29  1  0  0  0  0
 24 30  1  0  0  0  0
 22 31  1  0  0  0  0
 22 32  1  0  0  0  0
 22 33  1  0  0  0  0
  5 34  1  0  0  0  0
  1 35  1  0  0  0  0
 17 36  1  0  0  0  0
 15 37  1  0  0  0  0
 21 38  1  0  0  0  0
 19 39  1  0  0  0  0
 33 40  1  0  0  0  0
 33 41  1  0  0  0  0
 33 42  1  0  0  0  0
 32 43  1  0  0  0  0
 32 44  1  0  0  0  0
 32 45  1  0  0  0  0
 31 46  1  0  0  0  0
 31 47  1  0  0  0  0
 31 48  1  0  0  0  0
 28 49  1  0  0  0  0
 28 50  1  0  0  0  0
 28 51  1  0  0  0  0
 30 52  1  0  0  0  0
 30 53  1  0  0  0  0
 30 54  1  0  0  0  0
 29 55  1  0  0  0  0
 29 56  1  0  0  0  0
 29 57  1  0  0  0  0
 27 58  1  0  0  0  0
 27 59  1  0  0  0  0
 27 60  1  0  0  0  0
 26 61  1  0  0  0  0
 26 62  1  0  0  0  0
 26 63  1  0  0  0  0
 25 64  1  0  0  0  0
 25 65  1  0  0  0  0
 25 66  1  0  0  0  0
  2 67  1  0  0  0  0
 18 67  1  0  0  0  0
 13 68  1  0  0  0  0
M  END
