 energy: -93.767559937360 gnorm: 0.000091980878 xtb: 6.7.1 (edcfbbe)
          02282512173D

 68 73  0     0  0            999 V2000
   -1.2367    1.7919   -0.0388 C   0  0  0  0  0  0  0  0  0  0  0  0
   -1.2668    0.4224   -0.0513 C   0  0  0  0  0  0  0  0  0  0  0  0
   -0.0485   -0.2865   -0.0601 C   0  0  0  0  0  0  0  0  0  0  0  0
    1.2105    0.3754   -0.0557 C   0  0  0  0  0  0  0  0  0  0  0  0
    1.1844    1.7888   -0.0426 C   0  0  0  0  0  0  0  0  0  0  0  0
   -0.0009    2.4832   -0.0354 C   0  0  0  0  0  0  0  0  0  0  0  0
   -0.0622   -1.6770   -0.0765 C   0  0  0  0  0  0  0  0  0  0  0  0
    1.1333   -2.3805   -0.0884 C   0  0  0  0  0  0  0  0  0  0  0  0
    2.3485   -1.6384   -0.0826 C   0  0  0  0  0  0  0  0  0  0  0  0
    2.3644   -0.3008   -0.0660 N   0  0  0  0  0  0  0  0  0  0  0  0
   -1.3083   -2.3566   -0.0846 C   0  0  0  0  0  0  0  0  0  0  0  0
   -1.3248   -3.7590   -0.1049 C   0  0  0  0  0  0  0  0  0  0  0  0
   -0.1214   -4.4220   -0.1141 N   0  0  0  0  0  0  0  0  0  0  0  0
    1.1154   -3.7945   -0.1089 C   0  0  0  0  0  0  0  0  0  0  0  0
    2.3131   -4.4657   -0.1242 C   0  0  0  0  0  0  0  0  0  0  0  0
    3.5385   -3.7593   -0.1192 C   0  0  0  0  0  0  0  0  0  0  0  0
    3.5485   -2.3848   -0.0979 C   0  0  0  0  0  0  0  0  0  0  0  0
   -2.4891   -1.6110   -0.0750 C   0  0  0  0  0  0  0  0  0  0  0  0
   -3.7065   -2.2793   -0.0857 C   0  0  0  0  0  0  0  0  0  0  0  0
   -3.7453   -3.6720   -0.1070 C   0  0  0  0  0  0  0  0  0  0  0  0
   -2.5570   -4.4012   -0.1162 C   0  0  0  0  0  0  0  0  0  0  0  0
   -0.0515    4.0048   -0.0252 C   0  0  0  0  0  0  0  0  0  0  0  0
   -5.0628   -4.4346   -0.1246 C   0  0  0  0  0  0  0  0  0  0  0  0
    4.8218   -4.5788   -0.1424 C   0  0  0  0  0  0  0  0  0  0  0  0
   -6.2839   -3.5118   -0.1022 C   0  0  0  0  0  0  0  0  0  0  0  0
   -5.1316   -5.2826   -1.4029 C   0  0  0  0  0  0  0  0  0  0  0  0
   -5.1332   -5.3445    1.1102 C   0  0  0  0  0  0  0  0  0  0  0  0
    4.8499   -5.4308   -1.4196 C   0  0  0  0  0  0  0  0  0  0  0  0
    6.0803   -3.7075   -0.1284 C   0  0  0  0  0  0  0  0  0  0  0  0
    4.8627   -5.4887    1.0938 C   0  0  0  0  0  0  0  0  0  0  0  0
   -0.7896    4.4739    1.2366 C   0  0  0  0  0  0  0  0  0  0  0  0
   -0.7963    4.4902   -1.2770 C   0  0  0  0  0  0  0  0  0  0  0  0
    1.3401    4.6425   -0.0251 C   0  0  0  0  0  0  0  0  0  0  0  0
    2.1382    2.2861   -0.0399 H   0  0  0  0  0  0  0  0  0  0  0  0
   -2.1705    2.3292   -0.0325 H   0  0  0  0  0  0  0  0  0  0  0  0
    4.4639   -1.8204   -0.0936 H   0  0  0  0  0  0  0  0  0  0  0  0
    2.3097   -5.5451   -0.1411 H   0  0  0  0  0  0  0  0  0  0  0  0
   -2.5780   -5.4802   -0.1332 H   0  0  0  0  0  0  0  0  0  0  0  0
   -4.6040   -1.6872   -0.0779 H   0  0  0  0  0  0  0  0  0  0  0  0
    1.9036    4.3505    0.8575 H   0  0  0  0  0  0  0  0  0  0  0  0
    1.8990    4.3602   -0.9138 H   0  0  0  0  0  0  0  0  0  0  0  0
    1.2413    5.7264   -0.0190 H   0  0  0  0  0  0  0  0  0  0  0  0
   -1.8192    4.1255   -1.3000 H   0  0  0  0  0  0  0  0  0  0  0  0
   -0.8225    5.5777   -1.2976 H   0  0  0  0  0  0  0  0  0  0  0  0
   -0.2889    4.1397   -2.1732 H   0  0  0  0  0  0  0  0  0  0  0  0
   -1.8136    4.1121    1.2583 H   0  0  0  0  0  0  0  0  0  0  0  0
   -0.8124    5.5611    1.2734 H   0  0  0  0  0  0  0  0  0  0  0  0
   -0.2797    4.1087    2.1256 H   0  0  0  0  0  0  0  0  0  0  0  0
    4.0172   -6.1279   -1.4549 H   0  0  0  0  0  0  0  0  0  0  0  0
    5.7737   -6.0038   -1.4665 H   0  0  0  0  0  0  0  0  0  0  0  0
    4.7956   -4.7902   -2.2972 H   0  0  0  0  0  0  0  0  0  0  0  0
    4.0330   -6.1901    1.1036 H   0  0  0  0  0  0  0  0  0  0  0  0
    5.7887   -6.0599    1.1065 H   0  0  0  0  0  0  0  0  0  0  0  0
    4.8138   -4.8896    2.0005 H   0  0  0  0  0  0  0  0  0  0  0  0
    6.9622   -4.3451   -0.1452 H   0  0  0  0  0  0  0  0  0  0  0  0
    6.1163   -3.0597   -1.0006 H   0  0  0  0  0  0  0  0  0  0  0  0
    6.1224   -3.0973    0.7702 H   0  0  0  0  0  0  0  0  0  0  0  0
   -5.0506   -4.7514    2.0183 H   0  0  0  0  0  0  0  0  0  0  0  0
   -4.3349   -6.0811    1.1104 H   0  0  0  0  0  0  0  0  0  0  0  0
   -6.0831   -5.8742    1.1289 H   0  0  0  0  0  0  0  0  0  0  0  0
   -5.0582   -4.6442   -2.2806 H   0  0  0  0  0  0  0  0  0  0  0  0
   -4.3264   -6.0106   -1.4431 H   0  0  0  0  0  0  0  0  0  0  0  0
   -6.0769   -5.8190   -1.4441 H   0  0  0  0  0  0  0  0  0  0  0  0
   -6.3008   -2.8626   -0.9741 H   0  0  0  0  0  0  0  0  0  0  0  0
   -6.2981   -2.9030    0.7985 H   0  0  0  0  0  0  0  0  0  0  0  0
   -7.1905   -4.1133   -0.1148 H   0  0  0  0  0  0  0  0  0  0  0  0
   -2.4701   -0.2493   -0.0569 O   0  0  0  0  0  0  0  0  0  0  0  0
   -0.1354   -5.4316   -0.1291 H   0  0  0  0  0  0  0  0  0  0  0  0
  1  2  2  0  0  0  0
  1 35  1  0  0  0  0
  2  3  1  0  0  0  0
  3  7  2  0  0  0  0
  4  5  1  0  0  0  0
  5  6  2  0  0  0  0
  5 34  1  0  0  0  0
  6  1  1  0  0  0  0
  6 22  1  0  0  0  0
  8  9  1  0  0  0  0
 10  4  2  0  0  0  0
 11 12  2  0  0  0  0
 11 18  1  0  0  0  0
 13 14  1  0  0  0  0
 14  8  2  0  0  0  0
 15 16  2  0  0  0  0
 15 37  1  0  0  0  0
 16 24  1  0  0  0  0
 17  9  2  0  0  0  0
 17 36  1  0  0  0  0
 18 19  2  0  0  0  0
 19 20  1  0  0  0  0
 19 39  1  0  0  0  0
 20 21  2  0  0  0  0
 20 23  1  0  0  0  0
 21 12  1  0  0  0  0
 21 38  1  0  0  0  0
 22 31  1  0  0  0  0
 22 32  1  0  0  0  0
 22 33  1  0  0  0  0
 23 25  1  0  0  0  0
 23 26  1  0  0  0  0
 23 27  1  0  0  0  0
 24 28  1  0  0  0  0
 24 29  1  0  0  0  0
 24 30  1  0  0  0  0
 25 64  1  0  0  0  0
 25 65  1  0  0  0  0
 25 66  1  0  0  0  0
 26 61  1  0  0  0  0
 26 62  1  0  0  0  0
 26 63  1  0  0  0  0
 27 58  1  0  0  0  0
 27 59  1  0  0  0  0
 27 60  1  0  0  0  0
 28 49  1  0  0  0  0
 28 50  1  0  0  0  0
 28 51  1  0  0  0  0
 29 55  1  0  0  0  0
 29 56  1  0  0  0  0
 29 57  1  0  0  0  0
 30 52  1  0  0  0  0
 30 53  1  0  0  0  0
 30 54  1  0  0  0  0
 31 46  1  0  0  0  0
 31 47  1  0  0  0  0
 31 48  1  0  0  0  0
 32 43  1  0  0  0  0
 32 44  1  0  0  0  0
 32 45  1  0  0  0  0
 33 40  1  0  0  0  0
 33 41  1  0  0  0  0
 33 42  1  0  0  0  0
 18 67  1  0  0  0  0
 67  2  1  0  0  0  0
 12 13  1  0  0  0  0
 10  9  1  0  0  0  0
 17 16  1  0  0  0  0
 14 15  1  0  0  0  0
  3  4  1  0  0  0  0
 11  7  1  0  0  0  0
  7  8  1  0  0  0  0
 13 68  1  0  0  0  0
M  END
