 energy: -195.470518479984 gnorm: 0.000186002902 xtb: 6.7.1 (edcfbbe)
          03102512403D

137148  0     0  0            999 V2000
   -0.8789   -2.0076    1.4030 C   0  0  0  0  0  0  0  0  0  0  0  0
   -1.3325   -0.8841    0.7054 C   0  0  0  0  0  0  0  0  0  0  0  0
   -2.5734   -0.9404    0.0123 C   0  0  0  0  0  0  0  0  0  0  0  0
   -3.1580   -2.2593   -0.0897 C   0  0  0  0  0  0  0  0  0  0  0  0
   -2.5930   -3.3845    0.5610 C   0  0  0  0  0  0  0  0  0  0  0  0
   -1.5108   -3.2557    1.3968 C   0  0  0  0  0  0  0  0  0  0  0  0
   -3.3931    0.1577   -0.4158 C   0  0  0  0  0  0  0  0  0  0  0  0
   -4.7101   -0.1628   -0.8111 C   0  0  0  0  0  0  0  0  0  0  0  0
   -5.0984   -1.5068   -1.0425 C   0  0  0  0  0  0  0  0  0  0  0  0
   -4.3118   -2.5179   -0.6946 N   0  0  0  0  0  0  0  0  0  0  0  0
   -3.1249    1.5669   -0.3457 C   0  0  0  0  0  0  0  0  0  0  0  0
   -4.2649    2.4469   -0.2044 C   0  0  0  0  0  0  0  0  0  0  0  0
   -5.4950    2.0880   -0.5272 N   0  0  0  0  0  0  0  0  0  0  0  0
   -5.7080    0.8390   -0.9452 C   0  0  0  0  0  0  0  0  0  0  0  0
   -6.9825    0.5005   -1.4318 C   0  0  0  0  0  0  0  0  0  0  0  0
   -7.3152   -0.8010   -1.8054 C   0  0  0  0  0  0  0  0  0  0  0  0
   -6.3700   -1.7926   -1.5914 C   0  0  0  0  0  0  0  0  0  0  0  0
   -1.8810    2.2143   -0.4904 C   0  0  0  0  0  0  0  0  0  0  0  0
   -1.7551    3.5453   -0.0883 C   0  0  0  0  0  0  0  0  0  0  0  0
   -2.8329    4.3391    0.3244 C   0  0  0  0  0  0  0  0  0  0  0  0
   -4.0883    3.7942    0.1972 C   0  0  0  0  0  0  0  0  0  0  0  0
   -0.5751    0.2000    0.8466 O   0  0  0  0  0  0  0  0  0  0  0  0
   -0.8527    1.6029   -1.0751 O   0  0  0  0  0  0  0  0  0  0  0  0
    0.1063    0.8726   -0.2618 B   0  0  0  0  0  0  0  0  0  0  0  0
    1.0295   -2.3125   -1.2715 C   0  0  0  0  0  0  0  0  0  0  0  0
    1.5088   -1.0763   -0.8285 C   0  0  0  0  0  0  0  0  0  0  0  0
    2.7488   -1.0097   -0.1349 C   0  0  0  0  0  0  0  0  0  0  0  0
    3.3055   -2.2895    0.2470 C   0  0  0  0  0  0  0  0  0  0  0  0
    2.7144   -3.5153   -0.1505 C   0  0  0  0  0  0  0  0  0  0  0  0
    1.6339   -3.5444   -0.9972 C   0  0  0  0  0  0  0  0  0  0  0  0
    3.5901    0.1381    0.0545 C   0  0  0  0  0  0  0  0  0  0  0  0
    4.9010   -0.1183    0.5124 C   0  0  0  0  0  0  0  0  0  0  0  0
    5.2627   -1.3919    1.0214 C   0  0  0  0  0  0  0  0  0  0  0  0
    4.4544   -2.4385    0.8950 N   0  0  0  0  0  0  0  0  0  0  0  0
    3.3500    1.5054   -0.3142 C   0  0  0  0  0  0  0  0  0  0  0  0
    4.5078    2.3123   -0.6323 C   0  0  0  0  0  0  0  0  0  0  0  0
    5.7306    2.0044   -0.2352 N   0  0  0  0  0  0  0  0  0  0  0  0
    5.9194    0.8680    0.4359 C   0  0  0  0  0  0  0  0  0  0  0  0
    7.1919    0.6180    0.9858 C   0  0  0  0  0  0  0  0  0  0  0  0
    7.4981   -0.5810    1.6205 C   0  0  0  0  0  0  0  0  0  0  0  0
    6.5292   -1.5777    1.6157 C   0  0  0  0  0  0  0  0  0  0  0  0
    2.1200    2.1944   -0.3167 C   0  0  0  0  0  0  0  0  0  0  0  0
    2.0228    3.4127   -0.9921 C   0  0  0  0  0  0  0  0  0  0  0  0
    3.1170    4.0789   -1.5574 C   0  0  0  0  0  0  0  0  0  0  0  0
    4.3606    3.5476   -1.3098 C   0  0  0  0  0  0  0  0  0  0  0  0
    1.0779    1.7444    0.3794 O   0  0  0  0  0  0  0  0  0  0  0  0
    0.7755   -0.0307   -1.2002 O   0  0  0  0  0  0  0  0  0  0  0  0
   -1.0656   -4.3557    2.3418 C   0  0  0  0  0  0  0  0  0  0  0  0
    0.4532   -4.3375    2.5524 C   0  0  0  0  0  0  0  0  0  0  0  0
   -1.4891   -5.7441    1.8523 C   0  0  0  0  0  0  0  0  0  0  0  0
   -1.7622   -4.0715    3.6834 C   0  0  0  0  0  0  0  0  0  0  0  0
   -2.6568    5.7586    0.8333 C   0  0  0  0  0  0  0  0  0  0  0  0
   -3.2686    5.8424    2.2390 C   0  0  0  0  0  0  0  0  0  0  0  0
   -1.1863    6.1734    0.9196 C   0  0  0  0  0  0  0  0  0  0  0  0
   -3.3827    6.7263   -0.1113 C   0  0  0  0  0  0  0  0  0  0  0  0
   -8.6910   -1.0802   -2.3840 C   0  0  0  0  0  0  0  0  0  0  0  0
   -8.8709   -2.5487   -2.7738 C   0  0  0  0  0  0  0  0  0  0  0  0
   -8.8799   -0.2158   -3.6389 C   0  0  0  0  0  0  0  0  0  0  0  0
   -9.7505   -0.7176   -1.3338 C   0  0  0  0  0  0  0  0  0  0  0  0
    1.1632   -4.8107   -1.6874 C   0  0  0  0  0  0  0  0  0  0  0  0
   -0.3544   -4.8028   -1.9067 C   0  0  0  0  0  0  0  0  0  0  0  0
    1.5519   -6.0719   -0.9097 C   0  0  0  0  0  0  0  0  0  0  0  0
    1.8685   -4.8368   -3.0541 C   0  0  0  0  0  0  0  0  0  0  0  0
    2.9720    5.3615   -2.3566 C   0  0  0  0  0  0  0  0  0  0  0  0
    3.5929    5.1352   -3.7424 C   0  0  0  0  0  0  0  0  0  0  0  0
    3.7118    6.4936   -1.6308 C   0  0  0  0  0  0  0  0  0  0  0  0
    1.5104    5.7752   -2.5426 C   0  0  0  0  0  0  0  0  0  0  0  0
    8.8440   -0.8430    2.2732 C   0  0  0  0  0  0  0  0  0  0  0  0
    9.7767    0.3674    2.1906 C   0  0  0  0  0  0  0  0  0  0  0  0
    8.6105   -1.1781    3.7533 C   0  0  0  0  0  0  0  0  0  0  0  0
    9.5167   -2.0281    1.5664 C   0  0  0  0  0  0  0  0  0  0  0  0
  -10.7419   -0.9308   -1.7247 H   0  0  0  0  0  0  0  0  0  0  0  0
   -9.7106    0.3354   -1.0700 H   0  0  0  0  0  0  0  0  0  0  0  0
   -9.6051   -1.3042   -0.4293 H   0  0  0  0  0  0  0  0  0  0  0  0
   -9.8578   -2.6855   -3.2086 H   0  0  0  0  0  0  0  0  0  0  0  0
   -8.7976   -3.1996   -1.9059 H   0  0  0  0  0  0  0  0  0  0  0  0
   -8.1351   -2.8518   -3.5150 H   0  0  0  0  0  0  0  0  0  0  0  0
   -9.8537   -0.4146   -4.0784 H   0  0  0  0  0  0  0  0  0  0  0  0
   -8.1166   -0.4483   -4.3783 H   0  0  0  0  0  0  0  0  0  0  0  0
   -8.8236    0.8445   -3.4094 H   0  0  0  0  0  0  0  0  0  0  0  0
   -1.4673   -4.8168    4.4177 H   0  0  0  0  0  0  0  0  0  0  0  0
   -2.8432   -4.1071    3.5686 H   0  0  0  0  0  0  0  0  0  0  0  0
   -1.4897   -3.0878    4.0585 H   0  0  0  0  0  0  0  0  0  0  0  0
    0.7618   -5.2403    3.0737 H   0  0  0  0  0  0  0  0  0  0  0  0
    0.7609   -3.4902    3.1589 H   0  0  0  0  0  0  0  0  0  0  0  0
    0.9775   -4.2890    1.6012 H   0  0  0  0  0  0  0  0  0  0  0  0
   -1.0899   -6.5025    2.5213 H   0  0  0  0  0  0  0  0  0  0  0  0
   -1.1136   -5.9403    0.8518 H   0  0  0  0  0  0  0  0  0  0  0  0
   -2.5703   -5.8495    1.8485 H   0  0  0  0  0  0  0  0  0  0  0  0
   -0.6837   -5.7884   -2.2262 H   0  0  0  0  0  0  0  0  0  0  0  0
   -0.6412   -4.0970   -2.6814 H   0  0  0  0  0  0  0  0  0  0  0  0
   -0.8788   -4.5415   -0.9908 H   0  0  0  0  0  0  0  0  0  0  0  0
    1.5557   -5.7143   -3.6142 H   0  0  0  0  0  0  0  0  0  0  0  0
    2.9481   -4.8734   -2.9271 H   0  0  0  0  0  0  0  0  0  0  0  0
    1.6215   -3.9496   -3.6325 H   0  0  0  0  0  0  0  0  0  0  0  0
    1.1376   -6.9462   -1.4055 H   0  0  0  0  0  0  0  0  0  0  0  0
    1.1676   -6.0421    0.1062 H   0  0  0  0  0  0  0  0  0  0  0  0
    2.6303   -6.1983   -0.8736 H   0  0  0  0  0  0  0  0  0  0  0  0
   -3.1572    6.8498    2.6321 H   0  0  0  0  0  0  0  0  0  0  0  0
   -2.7642    5.1526    2.9122 H   0  0  0  0  0  0  0  0  0  0  0  0
   -4.3265    5.5967    2.2260 H   0  0  0  0  0  0  0  0  0  0  0  0
    3.5893    7.4243   -2.1788 H   0  0  0  0  0  0  0  0  0  0  0  0
    4.7744    6.2852   -1.5494 H   0  0  0  0  0  0  0  0  0  0  0  0
    3.3105    6.6285   -0.6287 H   0  0  0  0  0  0  0  0  0  0  0  0
   -1.1187    7.1694    1.3510 H   0  0  0  0  0  0  0  0  0  0  0  0
   -0.7332    6.2094   -0.0686 H   0  0  0  0  0  0  0  0  0  0  0  0
   -0.6209    5.4943    1.5538 H   0  0  0  0  0  0  0  0  0  0  0  0
   -3.2364    7.7494    0.2259 H   0  0  0  0  0  0  0  0  0  0  0  0
   -4.4499    6.5280   -0.1397 H   0  0  0  0  0  0  0  0  0  0  0  0
   -2.9898    6.6373   -1.1219 H   0  0  0  0  0  0  0  0  0  0  0  0
    3.5025    6.0382   -4.3408 H   0  0  0  0  0  0  0  0  0  0  0  0
    3.0794    4.3272   -4.2590 H   0  0  0  0  0  0  0  0  0  0  0  0
    4.6459    4.8798   -3.6680 H   0  0  0  0  0  0  0  0  0  0  0  0
    1.4646    6.6574   -3.1769 H   0  0  0  0  0  0  0  0  0  0  0  0
    1.0531    6.0292   -1.5890 H   0  0  0  0  0  0  0  0  0  0  0  0
    0.9350    4.9868   -3.0226 H   0  0  0  0  0  0  0  0  0  0  0  0
    9.6540   -1.8111    0.5093 H   0  0  0  0  0  0  0  0  0  0  0  0
    8.9275   -2.9362    1.6568 H   0  0  0  0  0  0  0  0  0  0  0  0
   10.4926   -2.2122    2.0076 H   0  0  0  0  0  0  0  0  0  0  0  0
    8.1154   -0.3501    4.2561 H   0  0  0  0  0  0  0  0  0  0  0  0
    9.5636   -1.3556    4.2442 H   0  0  0  0  0  0  0  0  0  0  0  0
    7.9983   -2.0676    3.8720 H   0  0  0  0  0  0  0  0  0  0  0  0
    9.3407    1.2350    2.6804 H   0  0  0  0  0  0  0  0  0  0  0  0
   10.0111    0.6159    1.1584 H   0  0  0  0  0  0  0  0  0  0  0  0
   10.7108    0.1346    2.6954 H   0  0  0  0  0  0  0  0  0  0  0  0
    7.9178    1.4071    0.8797 H   0  0  0  0  0  0  0  0  0  0  0  0
    6.7157   -2.5479    2.0488 H   0  0  0  0  0  0  0  0  0  0  0  0
    3.2313   -4.4032    0.1720 H   0  0  0  0  0  0  0  0  0  0  0  0
    5.2734    4.0527   -1.5788 H   0  0  0  0  0  0  0  0  0  0  0  0
   -4.9889    4.3642    0.3545 H   0  0  0  0  0  0  0  0  0  0  0  0
   -3.1294   -4.3095    0.4339 H   0  0  0  0  0  0  0  0  0  0  0  0
   -7.6986    1.3046   -1.4967 H   0  0  0  0  0  0  0  0  0  0  0  0
   -6.5693   -2.8282   -1.8121 H   0  0  0  0  0  0  0  0  0  0  0  0
    0.1328   -2.2633   -1.8687 H   0  0  0  0  0  0  0  0  0  0  0  0
    0.0201   -1.8517    1.9778 H   0  0  0  0  0  0  0  0  0  0  0  0
   -0.7575    3.9483   -0.1035 H   0  0  0  0  0  0  0  0  0  0  0  0
    1.0339    3.8304   -1.0675 H   0  0  0  0  0  0  0  0  0  0  0  0
  1135  1  0  0  0  0
  2  1  1  0  0  0  0
  2 22  1  0  0  0  0
  3  7  1  0  0  0  0
  3  2  2  0  0  0  0
  4  3  1  0  0  0  0
  5  4  2  0  0  0  0
  5  6  1  0  0  0  0
  6 48  1  0  0  0  0
  6  1  3  0  0  0  0
  7 11  1  0  0  0  0
  7  8  1  0  0  0  0
  9 17  1  0  0  0  0
  9  8  1  0  0  0  0
 10  4  1  0  0  0  0
 10  9  1  0  0  0  0
 11 18  2  0  0  0  0
 11 12  1  0  0  0  0
 12 21  2  0  0  0  0
 13 12  1  0  0  0  0
 14 13  1  0  0  0  0
 14  8  1  0  0  0  0
 15 16  1  0  0  0  0
 15 14  2  0  0  0  0
 16 17  1  0  0  0  0
 18 19  1  0  0  0  0
 19 20  2  0  0  0  0
 19136  1  0  0  0  0
 21 20  1  0  0  0  0
 23 18  1  0  0  0  0
 24 23  1  0  0  0  0
 24 22  1  0  0  0  0
 24 46  1  0  0  0  0
 25 26  1  0  0  0  0
 25134  1  0  0  0  0
 27 26  1  0  0  0  0
 27 31  2  0  0  0  0
 28 34  2  0  0  0  0
 28 27  1  0  0  0  0
 29 28  1  0  0  0  0
 29128  1  0  0  0  0
 29 30  1  0  0  0  0
 30 25  1  0  0  0  0
 30 60  1  0  0  0  0
 31 35  1  0  0  0  0
 32 31  1  0  0  0  0
 32 38  1  0  0  0  0
 33 32  2  0  0  0  0
 33 41  1  0  0  0  0
 34 33  1  0  0  0  0
 35 36  2  0  0  0  0
 35 42  1  0  0  0  0
 36 37  1  0  0  0  0
 38 37  1  0  0  0  0
 38 39  2  0  0  0  0
 39126  1  0  0  0  0
 40 39  1  0  0  0  0
 41127  1  0  0  0  0
 41 40  2  0  0  0  0
 42 46  1  0  0  0  0
 43 42  2  0  0  0  0
 43137  1  0  0  0  0
 44 45  2  0  0  0  0
 44 43  1  0  0  0  0
 45129  1  0  0  0  0
 45 36  1  0  0  0  0
 47 26  1  0  0  0  0
 47 24  1  0  0  0  0
 48 49  1  0  0  0  0
 49 84  1  0  0  0  0
 49 85  1  0  0  0  0
 49 86  1  0  0  0  0
 50 87  1  0  0  0  0
 50 48  1  0  0  0  0
 50 88  1  0  0  0  0
 51 83  1  0  0  0  0
 51 48  1  0  0  0  0
 52 20  1  0  0  0  0
 52 53  1  0  0  0  0
 52 54  1  0  0  0  0
 53100  1  0  0  0  0
 54107  1  0  0  0  0
 55 52  1  0  0  0  0
 56 16  1  0  0  0  0
 56 59  1  0  0  0  0
 57 56  1  0  0  0  0
 58 78  1  0  0  0  0
 58 56  1  0  0  0  0
 58 80  1  0  0  0  0
 59 72  1  0  0  0  0
 59 74  1  0  0  0  0
 59 73  1  0  0  0  0
 60 63  1  0  0  0  0
 60 62  1  0  0  0  0
 61 90  1  0  0  0  0
 61 60  1  0  0  0  0
 62 97  1  0  0  0  0
 62 96  1  0  0  0  0
 62 98  1  0  0  0  0
 63 94  1  0  0  0  0
 64 66  1  0  0  0  0
 64 44  1  0  0  0  0
 65113  1  0  0  0  0
 65 64  1  0  0  0  0
 66103  1  0  0  0  0
 66104  1  0  0  0  0
 67 64  1  0  0  0  0
 67115  1  0  0  0  0
 68 40  1  0  0  0  0
 68 70  1  0  0  0  0
 69123  1  0  0  0  0
 69 68  1  0  0  0  0
 70121  1  0  0  0  0
 70122  1  0  0  0  0
 70120  1  0  0  0  0
 71119  1  0  0  0  0
 71118  1  0  0  0  0
 71 68  1  0  0  0  0
 75 57  1  0  0  0  0
 76 57  1  0  0  0  0
 77 57  1  0  0  0  0
 79 58  1  0  0  0  0
 81 51  1  0  0  0  0
 82 51  1  0  0  0  0
 89 50  1  0  0  0  0
 91 61  1  0  0  0  0
 92 61  1  0  0  0  0
 93 63  1  0  0  0  0
 95 63  1  0  0  0  0
 99 53  1  0  0  0  0
101 53  1  0  0  0  0
102 66  1  0  0  0  0
105 54  1  0  0  0  0
106 54  1  0  0  0  0
108 55  1  0  0  0  0
109 55  1  0  0  0  0
110 55  1  0  0  0  0
111 65  1  0  0  0  0
112 65  1  0  0  0  0
114 67  1  0  0  0  0
116 67  1  0  0  0  0
117 71  1  0  0  0  0
124 69  1  0  0  0  0
125 69  1  0  0  0  0
130 21  1  0  0  0  0
131  5  1  0  0  0  0
132 15  1  0  0  0  0
133 17  1  0  0  0  0
M  CHG  1   1   1
M  END
