 energy: -391.800538285857 gnorm: 0.000311527889 xtb: 6.7.1 (edcfbbe)
          03102514373D

274296  0     0  0            999 V2000
   -2.8872   -2.4888    1.0105 C   0  0  0  0  0  0  0  0  0  0  0  0
   -3.3380   -1.2856    0.4752 C   0  0  0  0  0  0  0  0  0  0  0  0
   -4.3799   -1.2696   -0.4899 C   0  0  0  0  0  0  0  0  0  0  0  0
   -4.7755   -2.5700   -0.9694 C   0  0  0  0  0  0  0  0  0  0  0  0
   -4.2667   -3.7632   -0.4049 C   0  0  0  0  0  0  0  0  0  0  0  0
   -3.3694   -3.7450    0.6316 C   0  0  0  0  0  0  0  0  0  0  0  0
   -5.1779   -0.1472   -0.9106 C   0  0  0  0  0  5  0  0  0  0  0  0
   -6.2913   -0.4622   -1.7232 C   0  0  0  0  0  5  0  0  0  0  0  0
   -6.4449   -1.7511   -2.2999 C   0  0  0  0  0  5  0  0  0  0  0  0
   -5.6879   -2.7722   -1.9198 N   0  0  0  0  0  4  0  0  0  0  0  0
   -5.1183    1.2271   -0.4805 C   0  0  0  0  0  0  0  0  0  0  0  0
   -6.3593    1.9636   -0.5162 C   0  0  0  0  0  0  0  0  0  0  0  0
   -7.4124    1.5994   -1.2407 N   0  0  0  0  0  0  0  0  0  0  0  0
   -7.3391    0.4719   -1.9456 C   0  0  0  0  0  0  0  0  0  0  0  0
   -8.3752    0.1713   -2.8472 C   0  0  0  0  0  0  0  0  0  0  0  0
   -8.4276   -1.0356   -3.5380 C   0  0  0  0  0  5  0  0  0  0  0  0
   -7.4709   -1.9908   -3.2418 C   0  0  0  0  0  5  0  0  0  0  0  0
   -3.9932    1.9982   -0.0962 C   0  0  0  0  0  0  0  0  0  0  0  0
   -4.1834    3.2051    0.5762 C   0  0  0  0  0  0  0  0  0  0  0  0
   -5.4322    3.8087    0.7649 C   0  0  0  0  0  0  0  0  0  0  0  0
   -6.5032    3.1956    0.1654 C   0  0  0  0  0  0  0  0  0  0  0  0
   -2.7746   -0.1901    0.9905 O   0  0  0  0  0  0  0  0  0  0  0  0
   -2.7513    1.6961   -0.4753 O   0  0  0  0  0  0  0  0  0  0  0  0
   -1.9339    0.7040    0.2026 B   0  0  0  0  0  0  0  0  0  0  0  0
   -0.7401   -2.1132   -1.4278 C   0  0  0  0  0  5  0  0  0  0  0  0
   -0.3482   -0.9848   -0.7035 C   0  0  0  0  0  5  0  0  0  0  0  0
    0.8922   -0.9903    0.0007 C   0  0  0  0  0  0  0  0  0  0  0  0
    1.5551   -2.2713    0.0464 C   0  0  0  0  0  0  0  0  0  0  0  0
    1.0531   -3.4077   -0.6298 C   0  0  0  0  0  5  0  0  0  0  0  0
   -0.0368   -3.3205   -1.4586 C   0  0  0  0  0  5  0  0  0  0  0  0
    1.6446    0.1348    0.4919 C   0  0  0  0  0  0  0  0  0  0  0  0
    2.9930   -0.1117    0.8317 C   0  0  0  0  0  0  0  0  0  0  0  0
    3.4870   -1.4339    0.9516 C   0  0  0  0  0  0  0  0  0  0  0  0
    2.7483   -2.4834    0.6037 N   0  0  0  0  0  0  0  0  0  0  0  0
    1.2698    1.5184    0.5281 C   0  0  0  0  0  0  0  0  0  0  0  0
    2.3295    2.4900    0.4635 C   0  0  0  0  0  0  0  0  0  0  0  0
    3.5956    2.2079    0.7453 N   0  0  0  0  0  0  0  0  0  0  0  0
    3.9149    0.9477    1.0371 C   0  0  0  0  0  0  0  0  0  0  0  0
    5.2437    0.6732    1.4213 C   0  0  0  0  0  0  0  0  0  0  0  0
    5.7083   -0.6233    1.5876 C   0  0  0  0  0  0  0  0  0  0  0  0
    4.8142   -1.6619    1.3715 C   0  0  0  0  0  0  0  0  0  0  0  0
   -0.0274    2.0547    0.6799 C   0  0  0  0  0  0  0  0  0  0  0  0
   -0.2605    3.3911    0.3751 C   0  0  0  0  0  0  0  0  0  0  0  0
    0.7537    4.2770   -0.0123 C   0  0  0  0  0  0  0  0  0  0  0  0
    2.0459    3.8314    0.1139 C   0  0  0  0  0  0  0  0  0  0  0  0
   -1.0217    1.3073    1.1644 O   0  0  0  0  0  0  0  0  0  0  0  0
   -1.1512    0.0688   -0.8660 O   0  0  0  0  0  0  0  0  0  0  0  0
   -2.9329   -4.9911    1.3800 C   0  0  0  0  0  0  0  0  0  0  0  0
   -1.4324   -4.9380    1.6899 C   0  0  0  0  0  0  0  0  0  0  0  0
   -3.2414   -6.2683    0.5919 C   0  0  0  0  0  0  0  0  0  0  0  0
   -3.7059   -5.0315    2.7074 C   0  0  0  0  0  0  0  0  0  0  0  0
   -5.5799    5.0847    1.5764 C   0  0  0  0  0  0  0  0  0  0  0  0
   -5.7824    4.6719    3.0419 C   0  0  0  0  0  0  0  0  0  0  0  0
   -4.3293    5.9641    1.4704 C   0  0  0  0  0  0  0  0  0  0  0  0
   -6.7846    5.9111    1.1105 C   0  0  0  0  0  0  0  0  0  0  0  0
   -9.5461   -1.2713   -4.5404 C   0  0  0  0  0  0  0  0  0  0  0  0
   -9.4348   -2.6324   -5.2314 C   0  0  0  0  0  0  0  0  0  0  0  0
   -9.4852   -0.1779   -5.6159 C   0  0  0  0  0  0  0  0  0  0  0  0
  -10.8927   -1.2075   -3.8066 C   0  0  0  0  0  0  0  0  0  0  0  0
   -0.3774   -4.4147   -2.4563 C   0  0  0  0  0  0  0  0  0  0  0  0
   -1.8570   -4.3983   -2.8510 C   0  0  0  0  0  0  0  0  0  0  0  0
   -0.0226   -5.8089   -1.9269 C   0  0  0  0  0  0  0  0  0  0  0  0
    0.4734   -4.1295   -3.7055 C   0  0  0  0  0  0  0  0  0  0  0  0
    0.4632    5.6573   -0.5790 C   0  0  0  0  0  0  0  0  0  0  0  0
    0.8475    5.6186   -2.0665 C   0  0  0  0  0  0  0  0  0  0  0  0
    1.2968    6.7299    0.1329 C   0  0  0  0  0  0  0  0  0  0  0  0
   -1.0158    6.0340   -0.4712 C   0  0  0  0  0  0  0  0  0  0  0  0
    7.1641   -0.9472    1.8891 C   0  0  0  0  0  0  0  0  0  0  0  0
    8.0122    0.3081    2.1047 C   0  0  0  0  0  0  0  0  0  0  0  0
    7.2666   -1.8207    3.1448 C   0  0  0  0  0  0  0  0  0  0  0  0
    7.7327   -1.7120    0.6830 C   0  0  0  0  0  0  0  0  0  0  0  0
  -11.7061   -1.3977   -4.5034 H   0  0  0  0  0  0  0  0  0  0  0  0
  -11.0520   -0.2327   -3.3546 H   0  0  0  0  0  0  0  0  0  0  0  0
  -10.9288   -1.9589   -3.0206 H   0  0  0  0  0  0  0  0  0  0  0  0
  -10.2366   -2.7348   -5.9597 H   0  0  0  0  0  0  0  0  0  0  0  0
   -9.5273   -3.4449   -4.5147 H   0  0  0  0  0  0  0  0  0  0  0  0
   -8.4879   -2.7269   -5.7574 H   0  0  0  0  0  0  0  0  0  0  0  0
  -10.2770   -0.3288   -6.3463 H   0  0  0  0  0  0  0  0  0  0  0  0
   -8.5285   -0.2117   -6.1329 H   0  0  0  0  0  0  0  0  0  0  0  0
   -9.6045    0.8116   -5.1840 H   0  0  0  0  0  0  0  0  0  0  0  0
   -3.4576   -5.9408    3.2511 H   0  0  0  0  0  0  0  0  0  0  0  0
   -4.7792   -5.0238    2.5236 H   0  0  0  0  0  0  0  0  0  0  0  0
   -3.4411   -4.1763    3.3250 H   0  0  0  0  0  0  0  0  0  0  0  0
   -1.0907   -5.9121    2.0325 H   0  0  0  0  0  0  0  0  0  0  0  0
   -1.2243   -4.2204    2.4778 H   0  0  0  0  0  0  0  0  0  0  0  0
   -0.8620   -4.6565    0.8084 H   0  0  0  0  0  0  0  0  0  0  0  0
   -2.8437   -7.1308    1.1230 H   0  0  0  0  0  0  0  0  0  0  0  0
   -2.7904   -6.2380   -0.3965 H   0  0  0  0  0  0  0  0  0  0  0  0
   -4.3134   -6.4123    0.4834 H   0  0  0  0  0  0  0  0  0  0  0  0
   -2.0880   -5.2754   -3.4520 H   0  0  0  0  0  0  0  0  0  0  0  0
   -2.0992   -3.5214   -3.4450 H   0  0  0  0  0  0  0  0  0  0  0  0
   -2.4934   -4.4023   -1.9704 H   0  0  0  0  0  0  0  0  0  0  0  0
    0.2660   -4.8686   -4.4764 H   0  0  0  0  0  0  0  0  0  0  0  0
    1.5332   -4.1659   -3.4631 H   0  0  0  0  0  0  0  0  0  0  0  0
    0.2479   -3.1418   -4.1013 H   0  0  0  0  0  0  0  0  0  0  0  0
   -0.3445   -6.5638   -2.6413 H   0  0  0  0  0  0  0  0  0  0  0  0
   -0.5164   -6.0014   -0.9788 H   0  0  0  0  0  0  0  0  0  0  0  0
    1.0492   -5.9210   -1.7903 H   0  0  0  0  0  0  0  0  0  0  0  0
   -5.8409    5.5560    3.6741 H   0  0  0  0  0  0  0  0  0  0  0  0
   -4.9560    4.0472    3.3760 H   0  0  0  0  0  0  0  0  0  0  0  0
   -6.7099    4.1128    3.1518 H   0  0  0  0  0  0  0  0  0  0  0  0
    1.0283    7.7163   -0.2395 H   0  0  0  0  0  0  0  0  0  0  0  0
    2.3597    6.5865   -0.0370 H   0  0  0  0  0  0  0  0  0  0  0  0
    1.1124    6.7066    1.2038 H   0  0  0  0  0  0  0  0  0  0  0  0
   -4.5061    6.9171    1.9654 H   0  0  0  0  0  0  0  0  0  0  0  0
   -4.0864    6.1605    0.4284 H   0  0  0  0  0  0  0  0  0  0  0  0
   -3.4771    5.4933    1.9504 H   0  0  0  0  0  0  0  0  0  0  0  0
   -6.8003    6.8637    1.6360 H   0  0  0  0  0  0  0  0  0  0  0  0
   -7.7217    5.4036    1.3214 H   0  0  0  0  0  0  0  0  0  0  0  0
   -6.7246    6.1092    0.0428 H   0  0  0  0  0  0  0  0  0  0  0  0
    0.6514    6.5831   -2.5304 H   0  0  0  0  0  0  0  0  0  0  0  0
    0.2656    4.8595   -2.5844 H   0  0  0  0  0  0  0  0  0  0  0  0
    1.9016    5.3825   -2.1885 H   0  0  0  0  0  0  0  0  0  0  0  0
   -1.1694    7.0315   -0.8790 H   0  0  0  0  0  0  0  0  0  0  0  0
   -1.3413    6.0387    0.5660 H   0  0  0  0  0  0  0  0  0  0  0  0
   -1.6360    5.3412   -1.0343 H   0  0  0  0  0  0  0  0  0  0  0  0
    7.6283   -1.1192   -0.2234 H   0  0  0  0  0  0  0  0  0  0  0  0
    7.2165   -2.6564    0.5346 H   0  0  0  0  0  0  0  0  0  0  0  0
    8.7889   -1.9201    0.8388 H   0  0  0  0  0  0  0  0  0  0  0  0
    6.9548   -1.2581    4.0197 H   0  0  0  0  0  0  0  0  0  0  0  0
    8.2969   -2.1371    3.2944 H   0  0  0  0  0  0  0  0  0  0  0  0
    6.6429   -2.7074    3.0742 H   0  0  0  0  0  0  0  0  0  0  0  0
    7.6313    0.9037    2.9302 H   0  0  0  0  0  0  0  0  0  0  0  0
    8.0395    0.9208    1.2066 H   0  0  0  0  0  0  0  0  0  0  0  0
    9.0329    0.0174    2.3445 H   0  0  0  0  0  0  0  0  0  0  0  0
    5.8858    1.5271    1.5548 H   0  0  0  0  0  0  0  0  0  0  0  0
    5.1176   -2.6917    1.4695 H   0  0  0  0  0  0  0  0  0  0  0  0
    1.6527   -4.2986   -0.5438 H   0  0  0  0  0  0  0  0  0  0  0  0
    2.8974    4.4721   -0.0484 H   0  0  0  0  0  0  0  0  0  0  0  0
   -7.4873    3.6302    0.1317 H   0  0  0  0  0  0  0  0  0  0  0  0
   -4.6826   -4.6714   -0.8079 H   0  0  0  0  0  0  0  0  0  0  0  0
   -9.1335    0.9277   -2.9707 H   0  0  0  0  0  0  0  0  0  0  0  0
   -7.4791   -2.9713   -3.6865 H   0  0  0  0  0  0  0  0  0  0  0  0
   -1.6428   -1.9892   -2.0041 H   0  0  0  0  0  0  0  0  0  0  0  0
   -2.1194   -2.4024    1.7612 H   0  0  0  0  0  0  0  0  0  0  0  0
   -3.2898    3.6828    0.9377 H   0  0  0  0  0  0  0  0  0  0  0  0
   -1.2862    3.7099    0.4233 H   0  0  0  0  0  0  0  0  0  0  0  0
    0.9065   -1.6150    6.3276 C   0  0  0  0  0  0  0  0  0  0  0  0
    0.5339   -0.5862    5.4594 C   0  0  0  0  0  0  0  0  0  0  0  0
   -0.7076   -0.6624    4.7614 C   0  0  0  0  0  0  0  0  0  0  0  0
   -1.3950   -1.9249    4.8868 C   0  0  0  0  0  0  0  0  0  0  0  0
   -0.9139   -2.9694    5.7105 C   0  0  0  0  0  0  0  0  0  0  0  0
    0.1796   -2.7928    6.5202 C   0  0  0  0  0  0  0  0  0  0  0  0
   -1.4390    0.4015    4.1241 C   0  0  0  0  0  5  0  0  0  0  0  0
   -2.7922    0.1381    3.8187 C   0  0  0  0  0  5  0  0  0  0  0  0
   -3.3115   -1.1788    3.8753 C   0  0  0  0  0  5  0  0  0  0  0  0
   -2.5928   -2.1866    4.3611 N   0  0  0  0  0  4  0  0  0  0  0  0
   -1.0380    1.7608    3.9067 C   0  0  0  0  0  0  0  0  0  0  0  0
   -2.0789    2.7526    3.8446 C   0  0  0  0  0  0  0  0  0  0  0  0
   -3.3504    2.4601    3.5997 N   0  0  0  0  0  0  0  0  0  0  0  0
   -3.6938    1.1787    3.4744 C   0  0  0  0  0  0  0  0  0  0  0  0
   -5.0280    0.8814    3.1281 C   0  0  0  0  0  0  0  0  0  0  0  0
   -5.5178   -0.4164    3.1352 C   0  0  0  0  0  5  0  0  0  0  0  0
   -4.6437   -1.4344    3.4884 C   0  0  0  0  0  5  0  0  0  0  0  0
    0.2686    2.2480    3.6867 C   0  0  0  0  0  0  0  0  0  0  0  0
    0.5282    3.6075    3.8183 C   0  0  0  0  0  0  0  0  0  0  0  0
   -0.4679    4.5542    4.0922 C   0  0  0  0  0  0  0  0  0  0  0  0
   -1.7688    4.1218    4.0217 C   0  0  0  0  0  0  0  0  0  0  0  0
    1.3552    0.4656    5.4812 O   0  0  0  0  0  0  0  0  0  0  0  0
    1.2472    1.4248    3.3039 O   0  0  0  0  0  0  0  0  0  0  0  0
    2.1491    0.9379    4.3389 B   0  0  0  0  0  0  0  0  0  0  0  0
    3.0359   -2.3507    3.9604 C   0  0  0  0  0  5  0  0  0  0  0  0
    3.5120   -1.0976    4.3350 C   0  0  0  0  0  5  0  0  0  0  0  0
    4.5520   -0.9767    5.2944 C   0  0  0  0  0  0  0  0  0  0  0  0
    4.9200   -2.2114    5.9412 C   0  0  0  0  0  0  0  0  0  0  0  0
    4.3878   -3.4578    5.5343 C   0  0  0  0  0  5  0  0  0  0  0  0
    3.4910   -3.5566    4.5019 C   0  0  0  0  0  5  0  0  0  0  0  0
    5.3704    0.1760    5.5694 C   0  0  0  0  0  0  0  0  0  0  0  0
    6.4736   -0.0511    6.4242 C   0  0  0  0  0  0  0  0  0  0  0  0
    6.5988   -1.2571    7.1652 C   0  0  0  0  0  0  0  0  0  0  0  0
    5.8243   -2.3061    6.9152 N   0  0  0  0  0  0  0  0  0  0  0  0
    5.3404    1.4826    4.9622 C   0  0  0  0  0  0  0  0  0  0  0  0
    6.5958    2.1928    4.9102 C   0  0  0  0  0  0  0  0  0  0  0  0
    7.6372    1.9062    5.6854 N   0  0  0  0  0  0  0  0  0  0  0  0
    7.5376    0.8839    6.5317 C   0  0  0  0  0  0  0  0  0  0  0  0
    8.5641    0.6919    7.4778 C   0  0  0  0  0  0  0  0  0  0  0  0
    8.5864   -0.4112    8.3190 C   0  0  0  0  0  0  0  0  0  0  0  0
    7.6129   -1.3840    8.1365 C   0  0  0  0  0  0  0  0  0  0  0  0
    4.2334    2.2196    4.4727 C   0  0  0  0  0  0  0  0  0  0  0  0
    4.4512    3.3241    3.6498 C   0  0  0  0  0  0  0  0  0  0  0  0
    5.7127    3.8734    3.3936 C   0  0  0  0  0  0  0  0  0  0  0  0
    6.7682    3.3224    4.0754 C   0  0  0  0  0  0  0  0  0  0  0  0
    2.9838    1.9968    4.8802 O   0  0  0  0  0  0  0  0  0  0  0  0
    2.9730   -0.0676    3.6783 O   0  0  0  0  0  0  0  0  0  0  0  0
    0.5021   -3.7477    7.6572 C   0  0  0  0  0  0  0  0  0  0  0  0
    1.9858   -3.7174    8.0357 C   0  0  0  0  0  0  0  0  0  0  0  0
    0.1053   -5.1913    7.3280 C   0  0  0  0  0  0  0  0  0  0  0  0
   -0.3276   -3.2684    8.8604 C   0  0  0  0  0  0  0  0  0  0  0  0
   -0.1493    5.9876    4.4857 C   0  0  0  0  0  0  0  0  0  0  0  0
   -0.5395    6.1401    5.9644 C   0  0  0  0  0  0  0  0  0  0  0  0
    1.3380    6.3165    4.3420 C   0  0  0  0  0  0  0  0  0  0  0  0
   -0.9568    6.9821    3.6424 C   0  0  0  0  0  0  0  0  0  0  0  0
   -6.9807   -0.7488    2.8805 C   0  0  0  0  0  0  0  0  0  0  0  0
   -7.1056   -1.7822    1.7549 C   0  0  0  0  0  0  0  0  0  0  0  0
   -7.8045    0.4826    2.4978 C   0  0  0  0  0  0  0  0  0  0  0  0
   -7.5597   -1.3314    4.1800 C   0  0  0  0  0  0  0  0  0  0  0  0
    3.0259   -4.8797    3.9218 C   0  0  0  0  0  0  0  0  0  0  0  0
    1.5251   -4.8359    3.6119 C   0  0  0  0  0  0  0  0  0  0  0  0
    3.3113   -6.0507    4.8676 C   0  0  0  0  0  0  0  0  0  0  0  0
    3.7914   -5.1069    2.6091 C   0  0  0  0  0  0  0  0  0  0  0  0
    5.8873    5.0313    2.4253 C   0  0  0  0  0  0  0  0  0  0  0  0
    6.0711    4.4303    1.0238 C   0  0  0  0  0  0  0  0  0  0  0  0
    7.1141    5.8803    2.7786 C   0  0  0  0  0  0  0  0  0  0  0  0
    4.6586    5.9474    2.4221 C   0  0  0  0  0  0  0  0  0  0  0  0
    9.6495   -0.6093    9.3878 C   0  0  0  0  0  0  0  0  0  0  0  0
   10.6237    0.5683    9.4693 C   0  0  0  0  0  0  0  0  0  0  0  0
    8.9567   -0.7572   10.7495 C   0  0  0  0  0  0  0  0  0  0  0  0
   10.4489   -1.8799    9.0682 C   0  0  0  0  0  0  0  0  0  0  0  0
   -8.6218   -1.5315    4.0570 H   0  0  0  0  0  0  0  0  0  0  0  0
   -7.4346   -0.6257    4.9987 H   0  0  0  0  0  0  0  0  0  0  0  0
   -7.0658   -2.2602    4.4513 H   0  0  0  0  0  0  0  0  0  0  0  0
   -8.1415   -2.0997    1.6555 H   0  0  0  0  0  0  0  0  0  0  0  0
   -6.4943   -2.6608    1.9410 H   0  0  0  0  0  0  0  0  0  0  0  0
   -6.7925   -1.3479    0.8102 H   0  0  0  0  0  0  0  0  0  0  0  0
   -8.8311    0.1824    2.2984 H   0  0  0  0  0  0  0  0  0  0  0  0
   -7.4137    0.9542    1.6001 H   0  0  0  0  0  0  0  0  0  0  0  0
   -7.8180    1.2108    3.3053 H   0  0  0  0  0  0  0  0  0  0  0  0
   -0.1362   -3.9024    9.7235 H   0  0  0  0  0  0  0  0  0  0  0  0
   -1.3903   -3.3027    8.6306 H   0  0  0  0  0  0  0  0  0  0  0  0
   -0.0671   -2.2440    9.1169 H   0  0  0  0  0  0  0  0  0  0  0  0
    2.2020   -4.5141    8.7444 H   0  0  0  0  0  0  0  0  0  0  0  0
    2.2556   -2.7767    8.5081 H   0  0  0  0  0  0  0  0  0  0  0  0
    2.6126   -3.8523    7.1585 H   0  0  0  0  0  0  0  0  0  0  0  0
    0.4155   -5.8492    8.1371 H   0  0  0  0  0  0  0  0  0  0  0  0
    0.5831   -5.5258    6.4115 H   0  0  0  0  0  0  0  0  0  0  0  0
   -0.9706   -5.2917    7.2165 H   0  0  0  0  0  0  0  0  0  0  0  0
    1.1626   -5.8386    3.3966 H   0  0  0  0  0  0  0  0  0  0  0  0
    1.3264   -4.2198    2.7402 H   0  0  0  0  0  0  0  0  0  0  0  0
    0.9652   -4.4340    4.4526 H   0  0  0  0  0  0  0  0  0  0  0  0
    3.5220   -6.0733    2.1877 H   0  0  0  0  0  0  0  0  0  0  0  0
    4.8654   -5.0981    2.7881 H   0  0  0  0  0  0  0  0  0  0  0  0
    3.5414   -4.3331    1.8869 H   0  0  0  0  0  0  0  0  0  0  0  0
    2.8991   -6.9669    4.4496 H   0  0  0  0  0  0  0  0  0  0  0  0
    2.8593   -5.8866    5.8423 H   0  0  0  0  0  0  0  0  0  0  0  0
    4.3805   -6.1981    4.9974 H   0  0  0  0  0  0  0  0  0  0  0  0
   -0.3223    7.1494    6.3081 H   0  0  0  0  0  0  0  0  0  0  0  0
    0.0227    5.4369    6.5747 H   0  0  0  0  0  0  0  0  0  0  0  0
   -1.5991    5.9450    6.1079 H   0  0  0  0  0  0  0  0  0  0  0  0
    7.1522    6.7552    2.1329 H   0  0  0  0  0  0  0  0  0  0  0  0
    8.0372    5.3255    2.6359 H   0  0  0  0  0  0  0  0  0  0  0  0
    7.0628    6.2181    3.8112 H   0  0  0  0  0  0  0  0  0  0  0  0
    1.5124    7.3521    4.6282 H   0  0  0  0  0  0  0  0  0  0  0  0
    1.6671    6.1900    3.3136 H   0  0  0  0  0  0  0  0  0  0  0  0
    1.9409    5.6828    4.9874 H   0  0  0  0  0  0  0  0  0  0  0  0
   -0.6709    8.0009    3.8956 H   0  0  0  0  0  0  0  0  0  0  0  0
   -2.0233    6.8802    3.8189 H   0  0  0  0  0  0  0  0  0  0  0  0
   -0.7659    6.8264    2.5838 H   0  0  0  0  0  0  0  0  0  0  0  0
    6.1431    5.2249    0.2835 H   0  0  0  0  0  0  0  0  0  0  0  0
    5.2300    3.7855    0.7757 H   0  0  0  0  0  0  0  0  0  0  0  0
    6.9862    3.8425    0.9824 H   0  0  0  0  0  0  0  0  0  0  0  0
    4.8566    6.8274    1.8131 H   0  0  0  0  0  0  0  0  0  0  0  0
    4.4237    6.2766    3.4319 H   0  0  0  0  0  0  0  0  0  0  0  0
    3.7935    5.4420    2.0041 H   0  0  0  0  0  0  0  0  0  0  0  0
   10.9205   -1.7922    8.0916 H   0  0  0  0  0  0  0  0  0  0  0  0
    9.8100   -2.7585    9.0607 H   0  0  0  0  0  0  0  0  0  0  0  0
   11.2260   -2.0288    9.8145 H   0  0  0  0  0  0  0  0  0  0  0  0
    8.3762    0.1349   10.9751 H   0  0  0  0  0  0  0  0  0  0  0  0
    9.6990   -0.8924   11.5330 H   0  0  0  0  0  0  0  0  0  0  0  0
    8.2871   -1.6124   10.7636 H   0  0  0  0  0  0  0  0  0  0  0  0
   10.0984    1.4953    9.6865 H   0  0  0  0  0  0  0  0  0  0  0  0
   11.1800    0.6824    8.5420 H   0  0  0  0  0  0  0  0  0  0  0  0
   11.3392    0.3910   10.2695 H   0  0  0  0  0  0  0  0  0  0  0  0
    9.3288    1.4492    7.5032 H   0  0  0  0  0  0  0  0  0  0  0  0
    7.6085   -2.2969    8.7101 H   0  0  0  0  0  0  0  0  0  0  0  0
    4.7847   -4.3141    6.0534 H   0  0  0  0  0  0  0  0  0  0  0  0
    7.7608    3.7386    4.0603 H   0  0  0  0  0  0  0  0  0  0  0  0
   -2.6074    4.7943    4.1023 H   0  0  0  0  0  0  0  0  0  0  0  0
   -1.5310   -3.8517    5.7452 H   0  0  0  0  0  0  0  0  0  0  0  0
   -5.6539    1.7223    2.8821 H   0  0  0  0  0  0  0  0  0  0  0  0
   -4.9680   -2.4617    3.5287 H   0  0  0  0  0  0  0  0  0  0  0  0
    2.2705   -2.3471    3.2024 H   0  0  0  0  0  0  0  0  0  0  0  0
    1.8129   -1.4328    6.8825 H   0  0  0  0  0  0  0  0  0  0  0  0
    1.5597    3.8976    3.7294 H   0  0  0  0  0  0  0  0  0  0  0  0
    3.5689    3.7681    3.2233 H   0  0  0  0  0  0  0  0  0  0  0  0
  1135  1  0  0  0  0
  2  1  1  0  0  0  0
  2 22  1  0  0  0  0
  3  7  1  0  0  0  0
  3  2  2  0  0  0  0
  4  3  1  0  0  0  0
  5  4  2  0  0  0  0
  5  6  1  0  0  0  0
  6 48  1  0  0  0  0
  6  1  3  0  0  0  0
  7 11  1  0  0  0  0
  7  8  2  0  0  0  0
  9 17  1  0  0  0  0
  9  8  1  0  0  0  0
 10  4  1  0  0  0  0
 10  9  2  0  0  0  0
 11 18  2  0  0  0  0
 11 12  1  0  0  0  0
 12 21  2  0  0  0  0
 13 12  1  0  0  0  0
 14 13  1  0  0  0  0
 14  8  1  0  0  0  0
 15 16  1  0  0  0  0
 15 14  2  0  0  0  0
 16 17  2  0  0  0  0
 18 19  1  0  0  0  0
 19 20  2  0  0  0  0
 19136  1  0  0  0  0
 21 20  1  0  0  0  0
 23 18  1  0  0  0  0
 24 23  1  0  0  0  0
 24 22  1  0  0  0  0
 24 46  1  0  0  0  0
 25 26  2  0  0  0  0
 25134  1  0  0  0  0
 27 26  1  0  0  0  0
 27 31  2  0  0  0  0
 28 34  2  0  0  0  0
 28 27  1  0  0  0  0
 29 28  1  0  0  0  0
 29128  1  0  0  0  0
 29 30  2  0  0  0  0
 30 25  1  0  0  0  0
 30 60  1  0  0  0  0
 31 35  1  0  0  0  0
 32 31  1  0  0  0  0
 32 38  1  0  0  0  0
 33 32  2  0  0  0  0
 33 41  1  0  0  0  0
 34 33  1  0  0  0  0
 35 36  2  0  0  0  0
 35 42  1  0  0  0  0
 36 37  1  0  0  0  0
 38 37  1  0  0  0  0
 38 39  2  0  0  0  0
 39126  1  0  0  0  0
 40 39  1  0  0  0  0
 41127  1  0  0  0  0
 41 40  2  0  0  0  0
 42 46  1  0  0  0  0
 43 42  2  0  0  0  0
 43137  1  0  0  0  0
 44 45  2  0  0  0  0
 44 43  1  0  0  0  0
 45129  1  0  0  0  0
 45 36  1  0  0  0  0
 47 26  1  0  0  0  0
 47 24  1  0  0  0  0
 48 49  1  0  0  0  0
 49 84  1  0  0  0  0
 49 85  1  0  0  0  0
 49 86  1  0  0  0  0
 50 87  1  0  0  0  0
 50 48  1  0  0  0  0
 50 88  1  0  0  0  0
 51 83  1  0  0  0  0
 51 48  1  0  0  0  0
 52 20  1  0  0  0  0
 52 53  1  0  0  0  0
 52 54  1  0  0  0  0
 53100  1  0  0  0  0
 54107  1  0  0  0  0
 55 52  1  0  0  0  0
 56 16  1  0  0  0  0
 56 59  1  0  0  0  0
 57 56  1  0  0  0  0
 58 78  1  0  0  0  0
 58 56  1  0  0  0  0
 58 80  1  0  0  0  0
 59 72  1  0  0  0  0
 59 74  1  0  0  0  0
 59 73  1  0  0  0  0
 60 63  1  0  0  0  0
 60 62  1  0  0  0  0
 61 90  1  0  0  0  0
 61 60  1  0  0  0  0
 62 97  1  0  0  0  0
 62 96  1  0  0  0  0
 62 98  1  0  0  0  0
 63 94  1  0  0  0  0
 64 66  1  0  0  0  0
 64 44  1  0  0  0  0
 65113  1  0  0  0  0
 65 64  1  0  0  0  0
 66103  1  0  0  0  0
 66104  1  0  0  0  0
 67 64  1  0  0  0  0
 67115  1  0  0  0  0
 68 40  1  0  0  0  0
 68 70  1  0  0  0  0
 69123  1  0  0  0  0
 69 68  1  0  0  0  0
 70121  1  0  0  0  0
 70122  1  0  0  0  0
 70120  1  0  0  0  0
 71119  1  0  0  0  0
 71118  1  0  0  0  0
 71 68  1  0  0  0  0
 75 57  1  0  0  0  0
 76 57  1  0  0  0  0
 77 57  1  0  0  0  0
 79 58  1  0  0  0  0
 81 51  1  0  0  0  0
 82 51  1  0  0  0  0
 89 50  1  0  0  0  0
 91 61  1  0  0  0  0
 92 61  1  0  0  0  0
 93 63  1  0  0  0  0
 95 63  1  0  0  0  0
 99 53  1  0  0  0  0
101 53  1  0  0  0  0
102 66  1  0  0  0  0
105 54  1  0  0  0  0
106 54  1  0  0  0  0
108 55  1  0  0  0  0
109 55  1  0  0  0  0
110 55  1  0  0  0  0
111 65  1  0  0  0  0
112 65  1  0  0  0  0
114 67  1  0  0  0  0
116 67  1  0  0  0  0
117 71  1  0  0  0  0
124 69  1  0  0  0  0
125 69  1  0  0  0  0
130 21  1  0  0  0  0
131  5  1  0  0  0  0
132 15  1  0  0  0  0
133 17  1  0  0  0  0
138272  1  0  0  0  0
139138  1  0  0  0  0
139159  1  0  0  0  0
140144  1  0  0  0  0
140139  2  0  0  0  0
141140  1  0  0  0  0
142141  2  0  0  0  0
142143  1  0  0  0  0
143185  1  0  0  0  0
143138  3  0  0  0  0
144148  1  0  0  0  0
144145  2  0  0  0  0
146154  1  0  0  0  0
146145  1  0  0  0  0
147141  1  0  0  0  0
147146  2  0  0  0  0
148155  2  0  0  0  0
148149  1  0  0  0  0
149158  2  0  0  0  0
150149  1  0  0  0  0
151150  1  0  0  0  0
151145  1  0  0  0  0
152153  1  0  0  0  0
152151  2  0  0  0  0
153154  2  0  0  0  0
155156  1  0  0  0  0
156157  2  0  0  0  0
156273  1  0  0  0  0
158157  1  0  0  0  0
160155  1  0  0  0  0
161160  1  0  0  0  0
161159  1  0  0  0  0
161183  1  0  0  0  0
162163  2  0  0  0  0
162271  1  0  0  0  0
164163  1  0  0  0  0
164168  2  0  0  0  0
165171  2  0  0  0  0
165164  1  0  0  0  0
166165  1  0  0  0  0
166265  1  0  0  0  0
166167  2  0  0  0  0
167162  1  0  0  0  0
167197  1  0  0  0  0
168172  1  0  0  0  0
169168  1  0  0  0  0
169175  1  0  0  0  0
170169  2  0  0  0  0
170178  1  0  0  0  0
171170  1  0  0  0  0
172173  2  0  0  0  0
172179  1  0  0  0  0
173174  1  0  0  0  0
175174  1  0  0  0  0
175176  2  0  0  0  0
176263  1  0  0  0  0
177176  1  0  0  0  0
178264  1  0  0  0  0
178177  2  0  0  0  0
179183  1  0  0  0  0
180179  2  0  0  0  0
180274  1  0  0  0  0
181182  2  0  0  0  0
181180  1  0  0  0  0
182266  1  0  0  0  0
182173  1  0  0  0  0
184163  1  0  0  0  0
184161  1  0  0  0  0
185186  1  0  0  0  0
186221  1  0  0  0  0
186222  1  0  0  0  0
186223  1  0  0  0  0
187224  1  0  0  0  0
187185  1  0  0  0  0
187225  1  0  0  0  0
188220  1  0  0  0  0
188185  1  0  0  0  0
189157  1  0  0  0  0
189190  1  0  0  0  0
189191  1  0  0  0  0
190237  1  0  0  0  0
191244  1  0  0  0  0
192189  1  0  0  0  0
193153  1  0  0  0  0
193196  1  0  0  0  0
194193  1  0  0  0  0
195215  1  0  0  0  0
195193  1  0  0  0  0
195217  1  0  0  0  0
196209  1  0  0  0  0
196211  1  0  0  0  0
196210  1  0  0  0  0
197200  1  0  0  0  0
197199  1  0  0  0  0
198227  1  0  0  0  0
198197  1  0  0  0  0
199234  1  0  0  0  0
199233  1  0  0  0  0
199235  1  0  0  0  0
200231  1  0  0  0  0
201203  1  0  0  0  0
201181  1  0  0  0  0
202250  1  0  0  0  0
202201  1  0  0  0  0
203240  1  0  0  0  0
203241  1  0  0  0  0
204201  1  0  0  0  0
204252  1  0  0  0  0
205177  1  0  0  0  0
205207  1  0  0  0  0
206260  1  0  0  0  0
206205  1  0  0  0  0
207258  1  0  0  0  0
207259  1  0  0  0  0
207257  1  0  0  0  0
208256  1  0  0  0  0
208255  1  0  0  0  0
208205  1  0  0  0  0
212194  1  0  0  0  0
213194  1  0  0  0  0
214194  1  0  0  0  0
216195  1  0  0  0  0
218188  1  0  0  0  0
219188  1  0  0  0  0
226187  1  0  0  0  0
228198  1  0  0  0  0
229198  1  0  0  0  0
230200  1  0  0  0  0
232200  1  0  0  0  0
236190  1  0  0  0  0
238190  1  0  0  0  0
239203  1  0  0  0  0
242191  1  0  0  0  0
243191  1  0  0  0  0
245192  1  0  0  0  0
246192  1  0  0  0  0
247192  1  0  0  0  0
248202  1  0  0  0  0
249202  1  0  0  0  0
251204  1  0  0  0  0
253204  1  0  0  0  0
254208  1  0  0  0  0
261206  1  0  0  0  0
262206  1  0  0  0  0
267158  1  0  0  0  0
268142  1  0  0  0  0
269152  1  0  0  0  0
270154  1  0  0  0  0
M  END
