 energy: -95.235145790171 gnorm: 0.000353619461 xtb: 6.6.1 (8d0f1dd)
          11142413583D

 58 64  0     0  0            999 V2000
    2.3722    3.3973   -0.3333 C   0  0  0  0  0  0  0  0  0  0  0  0
    2.3755    1.9630   -0.2555 C   0  0  0  0  0  0  0  0  0  0  0  0
    1.2079    4.2051   -0.0987 C   0  0  0  0  0  0  0  0  0  0  0  0
    3.5787    4.0498   -0.6530 C   0  0  0  0  0  0  0  0  0  0  0  0
    3.6185    1.2801   -0.1711 C   0  0  0  0  0  0  0  0  0  0  0  0
    1.2158    5.5632   -0.5119 C   0  0  0  0  0  0  0  0  0  0  0  0
    4.8008    3.3298   -0.6266 C   0  0  0  0  0  0  0  0  0  0  0  0
    3.5694    5.4234   -1.0014 C   0  0  0  0  0  0  0  0  0  0  0  0
    4.8259    2.0086   -0.3196 C   0  0  0  0  0  0  0  0  0  0  0  0
    2.4150    6.1365   -1.0083 C   0  0  0  0  0  0  0  0  0  0  0  0
    1.2123    1.1852   -0.3465 C   0  0  0  0  0  0  0  0  0  0  0  0
    0.0805    3.7511    0.6124 C   0  0  0  0  0  0  0  0  0  0  0  0
    3.6271   -0.1168   -0.0099 C   0  0  0  0  0  0  0  0  0  0  0  0
    0.0547    6.3413   -0.3661 C   0  0  0  0  0  0  0  0  0  0  0  0
    1.2375   -0.1869   -0.1966 C   0  0  0  0  0  0  0  0  0  0  0  0
   -1.0310    4.5414    0.7704 C   0  0  0  0  0  0  0  0  0  0  0  0
    2.4630   -0.8371    0.0109 C   0  0  0  0  0  0  0  0  0  0  0  0
   -1.0653    5.8316    0.2386 C   0  0  0  0  0  0  0  0  0  0  0  0
    5.7165    3.8696   -0.8301 H   0  0  0  0  0  0  0  0  0  0  0  0
    4.5045    5.8834   -1.2934 H   0  0  0  0  0  0  0  0  0  0  0  0
    5.7641    1.4748   -0.2427 H   0  0  0  0  0  0  0  0  0  0  0  0
    2.3993    7.1683   -1.3333 H   0  0  0  0  0  0  0  0  0  0  0  0
    0.2646    1.6335   -0.5909 H   0  0  0  0  0  0  0  0  0  0  0  0
    0.1055    2.7827    1.0846 H   0  0  0  0  0  0  0  0  0  0  0  0
    4.5828   -0.6180    0.0777 H   0  0  0  0  0  0  0  0  0  0  0  0
    0.0698    7.3636   -0.7209 H   0  0  0  0  0  0  0  0  0  0  0  0
   -0.0228   -0.9429   -0.2500 C   0  0  0  0  0  0  0  0  0  0  0  0
   -1.8825    4.1641    1.3178 H   0  0  0  0  0  0  0  0  0  0  0  0
    2.4609   -1.9078    0.1378 H   0  0  0  0  0  0  0  0  0  0  0  0
   -1.9559    6.4359    0.3419 H   0  0  0  0  0  0  0  0  0  0  0  0
   -1.1109   -0.2085   -0.2963 N   0  0  0  0  0  0  0  0  0  0  0  0
   -2.3216   -0.9188   -0.2895 N   0  0  0  0  0  0  0  0  0  0  0  0
   -2.3615   -2.2887   -0.1343 C   0  0  0  0  0  0  0  0  0  0  0  0
   -1.1479   -2.9417   -0.2524 N   0  0  0  0  0  0  0  0  0  0  0  0
    0.0777   -2.2530   -0.2380 N   0  0  0  0  0  0  0  0  0  0  0  0
   -3.3976   -2.8879    0.1111 O   0  0  0  0  0  0  0  0  0  0  0  0
   -3.4444   -0.1026   -0.3217 C   0  0  0  0  0  0  0  0  0  0  0  0
   -3.2651    1.2792   -0.1572 C   0  0  0  0  0  0  0  0  0  0  0  0
   -4.3349    2.1438   -0.2220 C   0  0  0  0  0  0  0  0  0  0  0  0
   -5.6162    1.6672   -0.4534 C   0  0  0  0  0  0  0  0  0  0  0  0
   -5.8006    0.3043   -0.6254 C   0  0  0  0  0  0  0  0  0  0  0  0
   -4.7384   -0.5749   -0.5677 C   0  0  0  0  0  0  0  0  0  0  0  0
   -1.0181   -4.3226   -0.2752 C   0  0  0  0  0  0  0  0  0  0  0  0
   -2.0705   -5.1917   -0.5863 C   0  0  0  0  0  0  0  0  0  0  0  0
   -1.8589   -6.5544   -0.6287 C   0  0  0  0  0  0  0  0  0  0  0  0
   -0.6077   -7.0956   -0.3772 C   0  0  0  0  0  0  0  0  0  0  0  0
    0.4428   -6.2402   -0.0822 C   0  0  0  0  0  0  0  0  0  0  0  0
    0.2469   -4.8779   -0.0329 C   0  0  0  0  0  0  0  0  0  0  0  0
   -2.2675    1.6454    0.0167 H   0  0  0  0  0  0  0  0  0  0  0  0
   -4.1682    3.2054   -0.0920 H   0  0  0  0  0  0  0  0  0  0  0  0
   -6.4566    2.3463   -0.5029 H   0  0  0  0  0  0  0  0  0  0  0  0
   -6.7932   -0.0833   -0.8160 H   0  0  0  0  0  0  0  0  0  0  0  0
   -4.9111   -1.6281   -0.7056 H   0  0  0  0  0  0  0  0  0  0  0  0
    1.0594   -4.2070    0.1901 H   0  0  0  0  0  0  0  0  0  0  0  0
    1.4280   -6.6438    0.1135 H   0  0  0  0  0  0  0  0  0  0  0  0
   -0.4537   -8.1655   -0.4145 H   0  0  0  0  0  0  0  0  0  0  0  0
   -2.6877   -7.2073   -0.8700 H   0  0  0  0  0  0  0  0  0  0  0  0
   -3.0528   -4.8002   -0.7859 H   0  0  0  0  0  0  0  0  0  0  0  0
  1  2  1  0  0  0  0
  1  3  1  0  0  0  0
  1  4  2  0  0  0  0
  2  5  1  0  0  0  0
  2 11  2  0  0  0  0
  3  6  1  0  0  0  0
  3 12  2  0  0  0  0
  4  7  1  0  0  0  0
  4  8  1  0  0  0  0
  5  9  1  0  0  0  0
  5 13  2  0  0  0  0
  6 10  1  0  0  0  0
  6 14  2  0  0  0  0
  7  9  2  0  0  0  0
  7 19  1  0  0  0  0
  8 10  2  0  0  0  0
  8 20  1  0  0  0  0
  9 21  1  0  0  0  0
 10 22  1  0  0  0  0
 11 15  1  0  0  0  0
 11 23  1  0  0  0  0
 12 16  1  0  0  0  0
 12 24  1  0  0  0  0
 13 17  1  0  0  0  0
 13 25  1  0  0  0  0
 14 18  1  0  0  0  0
 14 26  1  0  0  0  0
 15 17  2  0  0  0  0
 15 27  1  0  0  0  0
 16 18  2  0  0  0  0
 16 28  1  0  0  0  0
 17 29  1  0  0  0  0
 18 30  1  0  0  0  0
 27 31  2  0  0  0  0
 31 32  1  0  0  0  0
 32 37  1  0  0  0  0
 32 33  1  0  0  0  0
 33 34  1  0  0  0  0
 33 36  2  0  0  0  0
 34 43  1  0  0  0  0
 34 35  1  0  0  0  0
 35 27  1  0  0  0  0
 37 38  2  0  0  0  0
 37 42  1  0  0  0  0
 38 39  1  0  0  0  0
 38 49  1  0  0  0  0
 39 40  2  0  0  0  0
 39 50  1  0  0  0  0
 40 41  1  0  0  0  0
 40 51  1  0  0  0  0
 41 42  2  0  0  0  0
 41 52  1  0  0  0  0
 42 53  1  0  0  0  0
 43 44  2  0  0  0  0
 43 48  1  0  0  0  0
 44 45  1  0  0  0  0
 44 58  1  0  0  0  0
 45 46  2  0  0  0  0
 45 57  1  0  0  0  0
 46 47  1  0  0  0  0
 46 56  1  0  0  0  0
 47 48  2  0  0  0  0
 47 55  1  0  0  0  0
 48 54  1  0  0  0  0
M  CHG  1   1  -1
M  END
