 energy: -190.011645894157 gnorm: 0.000235143317 xtb: 6.6.1 (8d0f1dd)
          11142414023D

116128  0     0  0            999 V2000
    2.2738    3.8805   -0.2193 C   0  0  0  0  0  0  0  0  0  0  0  0
    2.4503    2.4551   -0.2690 C   0  0  0  0  0  0  0  0  0  0  0  0
    1.0491    4.5247    0.1694 C   0  0  0  0  0  0  0  0  0  0  0  0
    3.3735    4.6892   -0.5555 C   0  0  0  0  0  0  0  0  0  0  0  0
    3.7602    1.9143   -0.3492 C   0  0  0  0  0  0  0  0  0  0  0  0
    0.8973    5.9147   -0.0721 C   0  0  0  0  0  0  0  0  0  0  0  0
    4.6619    4.1143   -0.7094 C   0  0  0  0  0  0  0  0  0  0  0  0
    3.2039    6.0857   -0.7375 C   0  0  0  0  0  0  0  0  0  0  0  0
    4.8621    2.7843   -0.5406 C   0  0  0  0  0  0  0  0  0  0  0  0
    1.9920    6.6672   -0.5695 C   0  0  0  0  0  0  0  0  0  0  0  0
    1.3812    1.5509   -0.3146 C   0  0  0  0  0  0  0  0  0  0  0  0
    0.0108    3.8793    0.8695 C   0  0  0  0  0  0  0  0  0  0  0  0
    3.9428    0.5202   -0.2931 C   0  0  0  0  0  0  0  0  0  0  0  0
   -0.3186    6.5499    0.2368 C   0  0  0  0  0  0  0  0  0  0  0  0
    1.5787    0.1882   -0.2252 C   0  0  0  0  0  0  0  0  0  0  0  0
   -1.1580    4.5247    1.1808 C   0  0  0  0  0  0  0  0  0  0  0  0
    2.8804   -0.3334   -0.1839 C   0  0  0  0  0  0  0  0  0  0  0  0
   -1.3449    5.8629    0.8267 C   0  0  0  0  0  0  0  0  0  0  0  0
    5.4890    4.7733   -0.9336 H   0  0  0  0  0  0  0  0  0  0  0  0
    4.0619    6.6700   -1.0387 H   0  0  0  0  0  0  0  0  0  0  0  0
    5.8534    2.3581   -0.5981 H   0  0  0  0  0  0  0  0  0  0  0  0
    1.8496    7.7215   -0.7601 H   0  0  0  0  0  0  0  0  0  0  0  0
    0.3752    1.8986   -0.4697 H   0  0  0  0  0  0  0  0  0  0  0  0
    0.1571    2.8733    1.2222 H   0  0  0  0  0  0  0  0  0  0  0  0
    4.9505    0.1331   -0.3429 H   0  0  0  0  0  0  0  0  0  0  0  0
   -0.4190    7.6037    0.0173 H   0  0  0  0  0  0  0  0  0  0  0  0
    0.4092   -0.6836   -0.1273 C   0  0  0  0  0  0  0  0  0  0  0  0
   -1.9323    4.0010    1.7227 H   0  0  0  0  0  0  0  0  0  0  0  0
    3.0148   -1.4004   -0.1137 H   0  0  0  0  0  0  0  0  0  0  0  0
   -2.2763    6.3583    1.0582 H   0  0  0  0  0  0  0  0  0  0  0  0
   -0.7710   -0.0944   -0.1765 N   0  0  0  0  0  0  0  0  0  0  0  0
   -1.8581   -0.8684    0.0176 N   0  0  0  0  0  0  0  0  0  0  0  0
   -1.7672   -2.2057    0.3702 C   0  0  0  0  0  0  0  0  0  0  0  0
   -0.4954   -2.7409    0.2358 N   0  0  0  0  0  0  0  0  0  0  0  0
    0.6017   -1.9805    0.0165 N   0  0  0  0  0  0  0  0  0  0  0  0
   -2.7146   -2.8382    0.7888 O   0  0  0  0  0  0  0  0  0  0  0  0
   -3.0858   -0.1836   -0.0324 C   0  0  0  0  0  0  0  0  0  0  0  0
   -3.0783    1.1903    0.2043 C   0  0  0  0  0  0  0  0  0  0  0  0
   -4.2512    1.9103    0.1179 C   0  0  0  0  0  0  0  0  0  0  0  0
   -5.4399    1.2729   -0.1984 C   0  0  0  0  0  0  0  0  0  0  0  0
   -5.4452   -0.0917   -0.4334 C   0  0  0  0  0  0  0  0  0  0  0  0
   -4.2766   -0.8261   -0.3584 C   0  0  0  0  0  0  0  0  0  0  0  0
   -0.2344   -4.1043    0.4637 C   0  0  0  0  0  0  0  0  0  0  0  0
   -1.1823   -5.0901    0.2069 C   0  0  0  0  0  0  0  0  0  0  0  0
   -0.8619   -6.4159    0.4297 C   0  0  0  0  0  0  0  0  0  0  0  0
    0.3911   -6.7715    0.8979 C   0  0  0  0  0  0  0  0  0  0  0  0
    1.3376   -5.7885    1.1390 C   0  0  0  0  0  0  0  0  0  0  0  0
    1.0325   -4.4613    0.9220 C   0  0  0  0  0  0  0  0  0  0  0  0
   -2.1465    1.6693    0.4546 H   0  0  0  0  0  0  0  0  0  0  0  0
   -4.2371    2.9739    0.3015 H   0  0  0  0  0  0  0  0  0  0  0  0
   -6.3578    1.8370   -0.2627 H   0  0  0  0  0  0  0  0  0  0  0  0
   -6.3672   -0.5928   -0.6867 H   0  0  0  0  0  0  0  0  0  0  0  0
   -4.2936   -1.8853   -0.5531 H   0  0  0  0  0  0  0  0  0  0  0  0
    1.7541   -3.6816    1.1015 H   0  0  0  0  0  0  0  0  0  0  0  0
    2.3183   -6.0584    1.5015 H   0  0  0  0  0  0  0  0  0  0  0  0
    0.6297   -7.8099    1.0710 H   0  0  0  0  0  0  0  0  0  0  0  0
   -1.6003   -7.1773    0.2297 H   0  0  0  0  0  0  0  0  0  0  0  0
   -2.1598   -4.8299   -0.1623 H   0  0  0  0  0  0  0  0  0  0  0  0
    2.4260    2.8736    3.1671 C   0  0  0  0  0  0  0  0  0  0  0  0
    2.2598    1.4475    3.0910 C   0  0  0  0  0  0  0  0  0  0  0  0
    1.3986    3.7798    3.6006 C   0  0  0  0  0  0  0  0  0  0  0  0
    3.6744    3.4124    2.8112 C   0  0  0  0  0  0  0  0  0  0  0  0
    3.4104    0.6230    2.9847 C   0  0  0  0  0  0  0  0  0  0  0  0
    1.5509    5.1669    3.3421 C   0  0  0  0  0  0  0  0  0  0  0  0
    4.7959    2.5600    2.6472 C   0  0  0  0  0  0  0  0  0  0  0  0
    3.8188    4.8115    2.6241 C   0  0  0  0  0  0  0  0  0  0  0  0
    4.6835    1.2183    2.8051 C   0  0  0  0  0  0  0  0  0  0  0  0
    2.7710    5.6507    2.8048 C   0  0  0  0  0  0  0  0  0  0  0  0
    1.0076    0.8150    3.0443 C   0  0  0  0  0  0  0  0  0  0  0  0
    0.2825    3.3836    4.3625 C   0  0  0  0  0  0  0  0  0  0  0  0
    3.2682   -0.7767    3.0129 C   0  0  0  0  0  0  0  0  0  0  0  0
    0.5174    6.0562    3.6805 C   0  0  0  0  0  0  0  0  0  0  0  0
    0.8877   -0.5596    3.0688 C   0  0  0  0  0  0  0  0  0  0  0  0
   -0.7003    4.2762    4.7073 C   0  0  0  0  0  0  0  0  0  0  0  0
    2.0378   -1.3647    3.0938 C   0  0  0  0  0  0  0  0  0  0  0  0
   -0.6084    5.6164    4.3238 C   0  0  0  0  0  0  0  0  0  0  0  0
    5.7514    3.0141    2.4271 H   0  0  0  0  0  0  0  0  0  0  0  0
    4.7802    5.1857    2.3031 H   0  0  0  0  0  0  0  0  0  0  0  0
    5.5501    0.5758    2.7450 H   0  0  0  0  0  0  0  0  0  0  0  0
    2.8612    6.7075    2.5996 H   0  0  0  0  0  0  0  0  0  0  0  0
    0.1027    1.3914    2.9531 H   0  0  0  0  0  0  0  0  0  0  0  0
    0.2258    2.3732    4.7355 H   0  0  0  0  0  0  0  0  0  0  0  0
    4.1608   -1.3840    2.9619 H   0  0  0  0  0  0  0  0  0  0  0  0
    0.6402    7.1030    3.4420 H   0  0  0  0  0  0  0  0  0  0  0  0
   -0.4415   -1.1719    3.1213 C   0  0  0  0  0  0  0  0  0  0  0  0
   -1.5440    3.9456    5.2963 H   0  0  0  0  0  0  0  0  0  0  0  0
    1.9216   -2.4353    3.1433 H   0  0  0  0  0  0  0  0  0  0  0  0
   -1.4000    6.3056    4.5787 H   0  0  0  0  0  0  0  0  0  0  0  0
   -1.4841   -0.3647    3.0586 N   0  0  0  0  0  0  0  0  0  0  0  0
   -2.7073   -0.9139    3.2324 N   0  0  0  0  0  0  0  0  0  0  0  0
   -2.8925   -2.2635    3.5209 C   0  0  0  0  0  0  0  0  0  0  0  0
   -1.7356   -3.0262    3.3933 N   0  0  0  0  0  0  0  0  0  0  0  0
   -0.5099   -2.4860    3.2354 N   0  0  0  0  0  0  0  0  0  0  0  0
   -3.9412   -2.7194    3.9056 O   0  0  0  0  0  0  0  0  0  0  0  0
   -3.7680    0.0073    3.2287 C   0  0  0  0  0  0  0  0  0  0  0  0
   -3.4776    1.3453    3.4989 C   0  0  0  0  0  0  0  0  0  0  0  0
   -4.4871    2.2849    3.4964 C   0  0  0  0  0  0  0  0  0  0  0  0
   -5.7923    1.9067    3.2259 C   0  0  0  0  0  0  0  0  0  0  0  0
   -6.0760    0.5809    2.9441 C   0  0  0  0  0  0  0  0  0  0  0  0
   -5.0750   -0.3718    2.9365 C   0  0  0  0  0  0  0  0  0  0  0  0
   -1.7619   -4.4265    3.4942 C   0  0  0  0  0  0  0  0  0  0  0  0
   -2.8725   -5.1656    3.0985 C   0  0  0  0  0  0  0  0  0  0  0  0
   -2.8407   -6.5429    3.2014 C   0  0  0  0  0  0  0  0  0  0  0  0
   -1.7155   -7.1912    3.6829 C   0  0  0  0  0  0  0  0  0  0  0  0
   -0.6046   -6.4526    4.0569 C   0  0  0  0  0  0  0  0  0  0  0  0
   -0.6220   -5.0763    3.9638 C   0  0  0  0  0  0  0  0  0  0  0  0
   -2.4593    1.6264    3.7145 H   0  0  0  0  0  0  0  0  0  0  0  0
   -4.2546    3.3171    3.7142 H   0  0  0  0  0  0  0  0  0  0  0  0
   -6.5833    2.6415    3.2327 H   0  0  0  0  0  0  0  0  0  0  0  0
   -7.0890    0.2814    2.7220 H   0  0  0  0  0  0  0  0  0  0  0  0
   -5.3057   -1.3972    2.7057 H   0  0  0  0  0  0  0  0  0  0  0  0
    0.2326   -4.4870    4.2551 H   0  0  0  0  0  0  0  0  0  0  0  0
    0.2783   -6.9507    4.4287 H   0  0  0  0  0  0  0  0  0  0  0  0
   -1.7020   -8.2679    3.7626 H   0  0  0  0  0  0  0  0  0  0  0  0
   -3.7037   -7.1154    2.8959 H   0  0  0  0  0  0  0  0  0  0  0  0
   -3.7402   -4.6671    2.7030 H   0  0  0  0  0  0  0  0  0  0  0  0
  1  2  1  0  0  0  0
  1  3  1  0  0  0  0
  1  4  2  0  0  0  0
  2  5  1  0  0  0  0
  2 11  2  0  0  0  0
  3  6  1  0  0  0  0
  3 12  2  0  0  0  0
  4  7  1  0  0  0  0
  4  8  1  0  0  0  0
  5  9  1  0  0  0  0
  5 13  2  0  0  0  0
  6 10  1  0  0  0  0
  6 14  2  0  0  0  0
  7  9  2  0  0  0  0
  7 19  1  0  0  0  0
  8 10  2  0  0  0  0
  8 20  1  0  0  0  0
  9 21  1  0  0  0  0
 10 22  1  0  0  0  0
 11 15  1  0  0  0  0
 11 23  1  0  0  0  0
 12 16  1  0  0  0  0
 12 24  1  0  0  0  0
 13 17  1  0  0  0  0
 13 25  1  0  0  0  0
 14 18  1  0  0  0  0
 14 26  1  0  0  0  0
 15 17  2  0  0  0  0
 15 27  1  0  0  0  0
 16 18  2  0  0  0  0
 16 28  1  0  0  0  0
 17 29  1  0  0  0  0
 18 30  1  0  0  0  0
 27 31  2  0  0  0  0
 31 32  1  0  0  0  0
 32 37  1  0  0  0  0
 32 33  1  0  0  0  0
 33 34  1  0  0  0  0
 33 36  2  0  0  0  0
 34 43  1  0  0  0  0
 34 35  1  0  0  0  0
 35 27  1  0  0  0  0
 37 38  2  0  0  0  0
 37 42  1  0  0  0  0
 38 39  1  0  0  0  0
 38 49  1  0  0  0  0
 39 40  2  0  0  0  0
 39 50  1  0  0  0  0
 40 41  1  0  0  0  0
 40 51  1  0  0  0  0
 41 42  2  0  0  0  0
 41 52  1  0  0  0  0
 42 53  1  0  0  0  0
 43 44  2  0  0  0  0
 43 48  1  0  0  0  0
 44 45  1  0  0  0  0
 44 58  1  0  0  0  0
 45 46  2  0  0  0  0
 45 57  1  0  0  0  0
 46 47  1  0  0  0  0
 46 56  1  0  0  0  0
 47 48  2  0  0  0  0
 47 55  1  0  0  0  0
 48 54  1  0  0  0  0
 59 60  1  0  0  0  0
 59 61  1  0  0  0  0
 59 62  2  0  0  0  0
 60 63  1  0  0  0  0
 60 69  2  0  0  0  0
 61 64  1  0  0  0  0
 61 70  2  0  0  0  0
 62 65  1  0  0  0  0
 62 66  1  0  0  0  0
 63 67  1  0  0  0  0
 63 71  2  0  0  0  0
 64 68  1  0  0  0  0
 64 72  2  0  0  0  0
 65 67  2  0  0  0  0
 65 77  1  0  0  0  0
 66 68  2  0  0  0  0
 66 78  1  0  0  0  0
 67 79  1  0  0  0  0
 68 80  1  0  0  0  0
 69 73  1  0  0  0  0
 69 81  1  0  0  0  0
 70 74  1  0  0  0  0
 70 82  1  0  0  0  0
 71 75  1  0  0  0  0
 71 83  1  0  0  0  0
 72 76  1  0  0  0  0
 72 84  1  0  0  0  0
 73 75  2  0  0  0  0
 73 85  1  0  0  0  0
 74 76  2  0  0  0  0
 74 86  1  0  0  0  0
 75 87  1  0  0  0  0
 76 88  1  0  0  0  0
 85 89  2  0  0  0  0
 89 90  1  0  0  0  0
 90 95  1  0  0  0  0
 90 91  1  0  0  0  0
 91 92  1  0  0  0  0
 91 94  2  0  0  0  0
 92101  1  0  0  0  0
 92 93  1  0  0  0  0
 93 85  1  0  0  0  0
 95 96  2  0  0  0  0
 95100  1  0  0  0  0
 96 97  1  0  0  0  0
 96107  1  0  0  0  0
 97 98  2  0  0  0  0
 97108  1  0  0  0  0
 98 99  1  0  0  0  0
 98109  1  0  0  0  0
 99100  2  0  0  0  0
 99110  1  0  0  0  0
100111  1  0  0  0  0
101102  2  0  0  0  0
101106  1  0  0  0  0
102103  1  0  0  0  0
102116  1  0  0  0  0
103104  2  0  0  0  0
103115  1  0  0  0  0
104105  1  0  0  0  0
104114  1  0  0  0  0
105106  2  0  0  0  0
105113  1  0  0  0  0
106112  1  0  0  0  0
M  END
