energy: -94.977280358671 gnorm: 0.000293665074 xtb: 6.6.1 (8d0f1dd)_energy: -94.977280358671 gnorm: 0.000293665074 xtb: 6.6.1 (8d0f1dd)
 OpenBabel11142414013D

116128  0  0  0  0  0  0  0  0999 V2000
    2.3755    3.4014   -0.3602 C   0  0  0  0  0  0  0  0  0  0  0  0
    2.3820    1.9674   -0.2848 C   0  0  0  0  0  0  0  0  0  0  0  0
    1.2184    4.2066   -0.0877 C   0  0  0  0  0  0  0  0  0  0  0  0
    3.5680    4.0493   -0.7245 C   0  0  0  0  0  0  0  0  0  0  0  0
    3.6232    1.2797   -0.2485 C   0  0  0  0  0  0  0  0  0  0  0  0
    1.2098    5.5600   -0.5123 C   0  0  0  0  0  0  0  0  0  0  0  0
    4.7899    3.3272   -0.7377 C   0  0  0  0  0  0  0  0  0  0  0  0
    3.5463    5.4232   -1.0808 C   0  0  0  0  0  0  0  0  0  0  0  0
    4.8270    2.0061   -0.4321 C   0  0  0  0  0  0  0  0  0  0  0  0
    2.3906    6.1310   -1.0552 C   0  0  0  0  0  0  0  0  0  0  0  0
    1.2123    1.1965   -0.3500 C   0  0  0  0  0  0  0  0  0  0  0  0
    0.1217    3.7556    0.6721 C   0  0  0  0  0  0  0  0  0  0  0  0
    3.6346   -0.1203   -0.1018 C   0  0  0  0  0  0  0  0  0  0  0  0
    0.0536    6.3382   -0.3280 C   0  0  0  0  0  0  0  0  0  0  0  0
    1.2444   -0.1774   -0.2248 C   0  0  0  0  0  0  0  0  0  0  0  0
   -0.9812    4.5467    0.8694 C   0  0  0  0  0  0  0  0  0  0  0  0
    2.4725   -0.8392   -0.0589 C   0  0  0  0  0  0  0  0  0  0  0  0
   -1.0385    5.8330    0.3261 C   0  0  0  0  0  0  0  0  0  0  0  0
    5.6976    3.8661   -0.9694 H   0  0  0  0  0  0  0  0  0  0  0  0
    4.4696    5.8814   -1.4056 H   0  0  0  0  0  0  0  0  0  0  0  0
    5.7655    1.4728   -0.3836 H   0  0  0  0  0  0  0  0  0  0  0  0
    2.3603    7.1585   -1.3884 H   0  0  0  0  0  0  0  0  0  0  0  0
    0.2646    1.6612   -0.5636 H   0  0  0  0  0  0  0  0  0  0  0  0
    0.1744    2.7948    1.1593 H   0  0  0  0  0  0  0  0  0  0  0  0
    4.5893   -0.6237   -0.0457 H   0  0  0  0  0  0  0  0  0  0  0  0
    0.0536    7.3569   -0.6893 H   0  0  0  0  0  0  0  0  0  0  0  0
   -0.0101   -0.9306   -0.2671 C   0  0  0  0  0  0  0  0  0  0  0  0
   -1.8057    4.1816    1.4646 H   0  0  0  0  0  0  0  0  0  0  0  0
    2.4770   -1.9114    0.0532 H   0  0  0  0  0  0  0  0  0  0  0  0
   -1.9228    6.4376    0.4650 H   0  0  0  0  0  0  0  0  0  0  0  0
   -1.1266   -0.2275   -0.3179 N   0  0  0  0  0  0  0  0  0  0  0  0
   -2.2943   -0.9059   -0.3007 N   0  0  0  0  0  0  0  0  0  0  0  0
   -2.3573   -2.2888   -0.1696 C   0  0  0  0  0  0  0  0  0  0  0  0
   -1.1202   -2.9175   -0.2628 N   0  0  0  0  0  0  0  0  0  0  0  0
    0.0545   -2.2483   -0.2649 N   0  0  0  0  0  0  0  0  0  0  0  0
   -3.3860   -2.8916    0.0319 O   0  0  0  0  0  0  0  0  0  0  0  0
   -3.4423   -0.0922   -0.3320 C   0  0  0  0  0  0  0  0  0  0  0  0
   -3.3088    1.2425    0.0540 C   0  0  0  0  0  0  0  0  0  0  0  0
   -4.3980    2.0878    0.0084 C   0  0  0  0  0  0  0  0  0  0  0  0
   -5.6302    1.6183   -0.4183 C   0  0  0  0  0  0  0  0  0  0  0  0
   -5.7599    0.2959   -0.8086 C   0  0  0  0  0  0  0  0  0  0  0  0
   -4.6762   -0.5620   -0.7752 C   0  0  0  0  0  0  0  0  0  0  0  0
   -1.0012   -4.3201   -0.2619 C   0  0  0  0  0  0  0  0  0  0  0  0
   -1.9806   -5.1420   -0.8124 C   0  0  0  0  0  0  0  0  0  0  0  0
   -1.7992   -6.5124   -0.8093 C   0  0  0  0  0  0  0  0  0  0  0  0
   -0.6511   -7.0731   -0.2750 C   0  0  0  0  0  0  0  0  0  0  0  0
    0.3290   -6.2517    0.2592 C   0  0  0  0  0  0  0  0  0  0  0  0
    0.1597   -4.8822    0.2674 C   0  0  0  0  0  0  0  0  0  0  0  0
   -2.3458    1.5961    0.3846 H   0  0  0  0  0  0  0  0  0  0  0  0
   -4.2853    3.1186    0.3096 H   0  0  0  0  0  0  0  0  0  0  0  0
   -6.4831    2.2793   -0.4487 H   0  0  0  0  0  0  0  0  0  0  0  0
   -6.7143   -0.0752   -1.1507 H   0  0  0  0  0  0  0  0  0  0  0  0
   -4.7940   -1.5854   -1.0874 H   0  0  0  0  0  0  0  0  0  0  0  0
    0.9116   -4.2300    0.6817 H   0  0  0  0  0  0  0  0  0  0  0  0
    1.2279   -6.6808    0.6764 H   0  0  0  0  0  0  0  0  0  0  0  0
   -0.5195   -8.1446   -0.2768 H   0  0  0  0  0  0  0  0  0  0  0  0
   -2.5619   -7.1463   -1.2361 H   0  0  0  0  0  0  0  0  0  0  0  0
   -2.8752   -4.7193   -1.2376 H   0  0  0  0  0  0  0  0  0  0  0  0
    2.3755    3.4014    3.6398 C   0  0  0  0  0  0  0  0  0  0  0  0
    2.3820    1.9674    3.7152 C   0  0  0  0  0  0  0  0  0  0  0  0
    1.2184    4.2066    3.9123 C   0  0  0  0  0  0  0  0  0  0  0  0
    3.5680    4.0493    3.2755 C   0  0  0  0  0  0  0  0  0  0  0  0
    3.6232    1.2797    3.7515 C   0  0  0  0  0  0  0  0  0  0  0  0
    1.2098    5.5600    3.4877 C   0  0  0  0  0  0  0  0  0  0  0  0
    4.7899    3.3272    3.2623 C   0  0  0  0  0  0  0  0  0  0  0  0
    3.5463    5.4232    2.9192 C   0  0  0  0  0  0  0  0  0  0  0  0
    4.8270    2.0061    3.5679 C   0  0  0  0  0  0  0  0  0  0  0  0
    2.3906    6.1310    2.9448 C   0  0  0  0  0  0  0  0  0  0  0  0
    1.2123    1.1965    3.6500 C   0  0  0  0  0  0  0  0  0  0  0  0
    0.1217    3.7556    4.6721 C   0  0  0  0  0  0  0  0  0  0  0  0
    3.6346   -0.1203    3.8982 C   0  0  0  0  0  0  0  0  0  0  0  0
    0.0536    6.3382    3.6720 C   0  0  0  0  0  0  0  0  0  0  0  0
    1.2444   -0.1774    3.7752 C   0  0  0  0  0  0  0  0  0  0  0  0
   -0.9812    4.5467    4.8694 C   0  0  0  0  0  0  0  0  0  0  0  0
    2.4725   -0.8392    3.9411 C   0  0  0  0  0  0  0  0  0  0  0  0
   -1.0385    5.8330    4.3261 C   0  0  0  0  0  0  0  0  0  0  0  0
    5.6976    3.8661    3.0306 H   0  0  0  0  0  0  0  0  0  0  0  0
    4.4696    5.8814    2.5944 H   0  0  0  0  0  0  0  0  0  0  0  0
    5.7655    1.4728    3.6164 H   0  0  0  0  0  0  0  0  0  0  0  0
    2.3603    7.1585    2.6116 H   0  0  0  0  0  0  0  0  0  0  0  0
    0.2646    1.6612    3.4364 H   0  0  0  0  0  0  0  0  0  0  0  0
    0.1744    2.7948    5.1593 H   0  0  0  0  0  0  0  0  0  0  0  0
    4.5893   -0.6237    3.9543 H   0  0  0  0  0  0  0  0  0  0  0  0
    0.0536    7.3569    3.3107 H   0  0  0  0  0  0  0  0  0  0  0  0
   -0.0101   -0.9306    3.7329 C   0  0  0  0  0  0  0  0  0  0  0  0
   -1.8057    4.1816    5.4646 H   0  0  0  0  0  0  0  0  0  0  0  0
    2.4770   -1.9114    4.0532 H   0  0  0  0  0  0  0  0  0  0  0  0
   -1.9228    6.4376    4.4650 H   0  0  0  0  0  0  0  0  0  0  0  0
   -1.1266   -0.2275    3.6821 N   0  0  0  0  0  0  0  0  0  0  0  0
   -2.2943   -0.9059    3.6993 N   0  0  0  0  0  0  0  0  0  0  0  0
   -2.3573   -2.2888    3.8304 C   0  0  0  0  0  0  0  0  0  0  0  0
   -1.1202   -2.9175    3.7372 N   0  0  0  0  0  0  0  0  0  0  0  0
    0.0545   -2.2483    3.7351 N   0  0  0  0  0  0  0  0  0  0  0  0
   -3.3860   -2.8916    4.0319 O   0  0  0  0  0  0  0  0  0  0  0  0
   -3.4423   -0.0922    3.6680 C   0  0  0  0  0  0  0  0  0  0  0  0
   -3.3088    1.2425    4.0540 C   0  0  0  0  0  0  0  0  0  0  0  0
   -4.3980    2.0878    4.0084 C   0  0  0  0  0  0  0  0  0  0  0  0
   -5.6302    1.6183    3.5817 C   0  0  0  0  0  0  0  0  0  0  0  0
   -5.7599    0.2959    3.1914 C   0  0  0  0  0  0  0  0  0  0  0  0
   -4.6762   -0.5620    3.2248 C   0  0  0  0  0  0  0  0  0  0  0  0
   -1.0012   -4.3201    3.7381 C   0  0  0  0  0  0  0  0  0  0  0  0
   -1.9806   -5.1420    3.1876 C   0  0  0  0  0  0  0  0  0  0  0  0
   -1.7992   -6.5124    3.1907 C   0  0  0  0  0  0  0  0  0  0  0  0
   -0.6511   -7.0731    3.7250 C   0  0  0  0  0  0  0  0  0  0  0  0
    0.3290   -6.2517    4.2592 C   0  0  0  0  0  0  0  0  0  0  0  0
    0.1597   -4.8822    4.2674 C   0  0  0  0  0  0  0  0  0  0  0  0
   -2.3458    1.5961    4.3846 H   0  0  0  0  0  0  0  0  0  0  0  0
   -4.2853    3.1186    4.3096 H   0  0  0  0  0  0  0  0  0  0  0  0
   -6.4831    2.2793    3.5513 H   0  0  0  0  0  0  0  0  0  0  0  0
   -6.7143   -0.0752    2.8493 H   0  0  0  0  0  0  0  0  0  0  0  0
   -4.7940   -1.5854    2.9126 H   0  0  0  0  0  0  0  0  0  0  0  0
    0.9116   -4.2300    4.6817 H   0  0  0  0  0  0  0  0  0  0  0  0
    1.2279   -6.6808    4.6764 H   0  0  0  0  0  0  0  0  0  0  0  0
   -0.5195   -8.1446    3.7232 H   0  0  0  0  0  0  0  0  0  0  0  0
   -2.5619   -7.1463    2.7639 H   0  0  0  0  0  0  0  0  0  0  0  0
   -2.8752   -4.7193    2.7624 H   0  0  0  0  0  0  0  0  0  0  0  0
  1  2  1  0  0  0  0
  1  3  1  0  0  0  0
  1  4  2  0  0  0  0
  2  5  1  0  0  0  0
  2 11  2  0  0  0  0
  3  6  1  0  0  0  0
  3 12  2  0  0  0  0
  4  7  1  0  0  0  0
  4  8  1  0  0  0  0
  5  9  1  0  0  0  0
  5 13  2  0  0  0  0
  6 10  1  0  0  0  0
  6 14  2  0  0  0  0
  7  9  2  0  0  0  0
  7 19  1  0  0  0  0
  8 10  2  0  0  0  0
  8 20  1  0  0  0  0
  9 21  1  0  0  0  0
 10 22  1  0  0  0  0
 11 15  1  0  0  0  0
 11 23  1  0  0  0  0
 12 16  1  0  0  0  0
 12 24  1  0  0  0  0
 13 17  1  0  0  0  0
 13 25  1  0  0  0  0
 14 18  1  0  0  0  0
 14 26  1  0  0  0  0
 15 17  2  0  0  0  0
 15 27  1  0  0  0  0
 16 18  2  0  0  0  0
 16 28  1  0  0  0  0
 17 29  1  0  0  0  0
 18 30  1  0  0  0  0
 27 31  2  0  0  0  0
 31 32  1  0  0  0  0
 32 37  1  0  0  0  0
 32 33  1  0  0  0  0
 33 34  1  0  0  0  0
 33 36  2  0  0  0  0
 34 43  1  0  0  0  0
 34 35  1  0  0  0  0
 35 27  1  0  0  0  0
 37 38  2  0  0  0  0
 37 42  1  0  0  0  0
 38 39  1  0  0  0  0
 38 49  1  0  0  0  0
 39 40  2  0  0  0  0
 39 50  1  0  0  0  0
 40 41  1  0  0  0  0
 40 51  1  0  0  0  0
 41 42  2  0  0  0  0
 41 52  1  0  0  0  0
 42 53  1  0  0  0  0
 43 44  2  0  0  0  0
 43 48  1  0  0  0  0
 44 45  1  0  0  0  0
 44 58  1  0  0  0  0
 45 46  2  0  0  0  0
 45 57  1  0  0  0  0
 46 47  1  0  0  0  0
 46 56  1  0  0  0  0
 47 48  2  0  0  0  0
 47 55  1  0  0  0  0
 48 54  1  0  0  0  0
 59 60  1  0  0  0  0
 59 61  1  0  0  0  0
 59 62  2  0  0  0  0
 60 63  1  0  0  0  0
 60 69  2  0  0  0  0
 61 64  1  0  0  0  0
 61 70  2  0  0  0  0
 62 65  1  0  0  0  0
 62 66  1  0  0  0  0
 63 67  1  0  0  0  0
 63 71  2  0  0  0  0
 64 68  1  0  0  0  0
 64 72  2  0  0  0  0
 65 67  2  0  0  0  0
 65 77  1  0  0  0  0
 66 68  2  0  0  0  0
 66 78  1  0  0  0  0
 67 79  1  0  0  0  0
 68 80  1  0  0  0  0
 69 73  1  0  0  0  0
 69 81  1  0  0  0  0
 70 74  1  0  0  0  0
 70 82  1  0  0  0  0
 71 75  1  0  0  0  0
 71 83  1  0  0  0  0
 72 76  1  0  0  0  0
 72 84  1  0  0  0  0
 73 75  2  0  0  0  0
 73 85  1  0  0  0  0
 74 76  2  0  0  0  0
 74 86  1  0  0  0  0
 75 87  1  0  0  0  0
 76 88  1  0  0  0  0
 85 89  2  0  0  0  0
 89 90  1  0  0  0  0
 90 95  1  0  0  0  0
 90 91  1  0  0  0  0
 91 92  1  0  0  0  0
 91 94  2  0  0  0  0
 92101  1  0  0  0  0
 92 93  1  0  0  0  0
 93 85  1  0  0  0  0
 95 96  2  0  0  0  0
 95100  1  0  0  0  0
 96 97  1  0  0  0  0
 96107  1  0  0  0  0
 97 98  2  0  0  0  0
 97108  1  0  0  0  0
 98 99  1  0  0  0  0
 98109  1  0  0  0  0
 99100  2  0  0  0  0
 99110  1  0  0  0  0
100111  1  0  0  0  0
101102  2  0  0  0  0
101106  1  0  0  0  0
102103  1  0  0  0  0
102116  1  0  0  0  0
103104  2  0  0  0  0
103115  1  0  0  0  0
104105  1  0  0  0  0
104114  1  0  0  0  0
105106  2  0  0  0  0
105113  1  0  0  0  0
106112  1  0  0  0  0
M  END
