 energy: -110.506753020844 gnorm: 0.000635814262 xtb: 6.7.1 (edcfbbe)
          12022411403D

 58 62  0     0  0            999 V2000
   -2.0709    1.4837   -2.6733 C   0  0  0  0  0  0  0  0  0  0  0  0
   -1.8387    0.6607   -1.5932 C   0  0  0  0  0  0  0  0  0  0  0  0
   -1.0102    1.1045   -0.5331 C   0  0  0  0  0  0  0  0  0  0  0  0
   -0.2142    2.2816   -0.7166 C   0  0  0  0  0  0  0  0  0  0  0  0
   -0.5148    3.1278   -1.8156 C   0  0  0  0  0  0  0  0  0  0  0  0
   -1.4463    2.7369   -2.7256 C   0  0  0  0  0  0  0  0  0  0  0  0
   -0.8407    0.4114    0.7037 C   0  0  0  0  0  0  0  0  0  0  0  0
    0.3516    0.6507    1.4042 C   0  0  0  0  0  0  0  0  0  0  0  0
    1.1698    1.7663    1.0386 C   0  0  0  0  0  0  0  0  0  0  0  0
    0.7968    2.6233    0.0751 N   0  0  0  0  0  0  0  0  0  0  0  0
   -1.7650   -0.4989    1.3010 C   0  0  0  0  0  0  0  0  0  0  0  0
   -1.2284   -1.4052    2.2725 C   0  0  0  0  0  0  0  0  0  0  0  0
   -0.0064   -1.3011    2.7879 N   0  0  0  0  0  0  0  0  0  0  0  0
    0.7283   -0.2248    2.4712 C   0  0  0  0  0  0  0  0  0  0  0  0
    1.9321    0.0306    3.1451 C   0  0  0  0  0  0  0  0  0  0  0  0
    2.6995    1.1120    2.7725 C   0  0  0  0  0  0  0  0  0  0  0  0
    2.3513    1.9846    1.7595 C   0  0  0  0  0  0  0  0  0  0  0  0
   -3.1602   -0.4976    1.0592 C   0  0  0  0  0  0  0  0  0  0  0  0
   -3.9431   -1.5191    1.5526 C   0  0  0  0  0  0  0  0  0  0  0  0
   -3.3545   -2.5205    2.3285 C   0  0  0  0  0  0  0  0  0  0  0  0
   -2.0522   -2.4661    2.7266 C   0  0  0  0  0  0  0  0  0  0  0  0
   -3.6689    0.5901    0.4034 O   0  0  0  0  0  0  0  0  0  0  0  0
   -2.2956   -0.6277   -1.5129 O   0  0  0  0  0  0  0  0  0  0  0  0
   -1.9441    3.7968   -4.1061 S   0  0  0  0  0  0  0  0  0  0  0  0
   -4.3640   -3.9276    2.8627 S   0  0  0  0  0  0  0  0  0  0  0  0
    0.0191    4.0576   -1.9292 H   0  0  0  0  0  0  0  0  0  0  0  0
   -2.7213    1.2054   -3.4875 H   0  0  0  0  0  0  0  0  0  0  0  0
    2.9902    2.8133    1.4986 H   0  0  0  0  0  0  0  0  0  0  0  0
    2.2413   -0.6063    3.9581 H   0  0  0  0  0  0  0  0  0  0  0  0
   -1.6334   -3.1985    3.3980 H   0  0  0  0  0  0  0  0  0  0  0  0
   -5.0051   -1.5835    1.3775 H   0  0  0  0  0  0  0  0  0  0  0  0
   -1.1213    4.9919   -4.0096 O   0  0  0  0  0  0  0  0  0  0  0  0
   -3.4762    4.1791   -3.4973 O   0  0  0  0  0  0  0  0  0  0  0  0
   -3.4755    4.9222   -2.3083 C   0  0  0  0  0  0  0  0  0  0  0  0
    4.2743    1.4519    3.6029 S   0  0  0  0  0  0  0  0  0  0  0  0
    4.3473    0.5196    4.7213 O   0  0  0  0  0  0  0  0  0  0  0  0
    5.2831    0.8494    2.3843 O   0  0  0  0  0  0  0  0  0  0  0  0
    5.1790   -0.5277    2.1519 C   0  0  0  0  0  0  0  0  0  0  0  0
   -5.7081   -3.6310    2.3787 O   0  0  0  0  0  0  0  0  0  0  0  0
   -3.6916   -5.0635    1.8112 O   0  0  0  0  0  0  0  0  0  0  0  0
   -3.8534   -4.7926    0.4463 C   0  0  0  0  0  0  0  0  0  0  0  0
   -5.0510    0.6508    0.1877 C   0  0  0  0  0  0  0  0  0  0  0  0
   -3.1076   -1.1123   -2.5443 C   0  0  0  0  0  0  0  0  0  0  0  0
   -3.7245   -5.7315   -0.0929 H   0  0  0  0  0  0  0  0  0  0  0  0
   -3.1124   -4.0633    0.1021 H   0  0  0  0  0  0  0  0  0  0  0  0
   -4.8604   -4.4024    0.2595 H   0  0  0  0  0  0  0  0  0  0  0  0
    6.1016   -0.8511    1.6688 H   0  0  0  0  0  0  0  0  0  0  0  0
    4.3239   -0.7532    1.5062 H   0  0  0  0  0  0  0  0  0  0  0  0
    5.0600   -1.0594    3.1027 H   0  0  0  0  0  0  0  0  0  0  0  0
   -3.3833   -2.1266   -2.2538 H   0  0  0  0  0  0  0  0  0  0  0  0
   -2.5719   -1.1443   -3.5011 H   0  0  0  0  0  0  0  0  0  0  0  0
   -4.0167   -0.5122   -2.6654 H   0  0  0  0  0  0  0  0  0  0  0  0
   -5.2245    1.5770   -0.3608 H   0  0  0  0  0  0  0  0  0  0  0  0
   -5.6073    0.6787    1.1322 H   0  0  0  0  0  0  0  0  0  0  0  0
   -5.4093   -0.1951   -0.4100 H   0  0  0  0  0  0  0  0  0  0  0  0
   -4.4347    5.4362   -2.2411 H   0  0  0  0  0  0  0  0  0  0  0  0
   -2.6673    5.6612   -2.3299 H   0  0  0  0  0  0  0  0  0  0  0  0
   -3.3407    4.2701   -1.4390 H   0  0  0  0  0  0  0  0  0  0  0  0
  1  2  2  0  0  0  0
  1  6  1  0  0  0  0
  1 27  1  0  0  0  0
  2  3  1  0  0  0  0
  2 23  1  0  0  0  0
  3  4  2  0  0  0  0
  3  7  1  0  0  0  0
  4  5  1  0  0  0  0
  4 10  1  0  0  0  0
  5  6  2  0  0  0  0
  5 26  1  0  0  0  0
  6 24  1  0  0  0  0
  7  8  2  0  0  0  0
  7 11  1  0  0  0  0
  8  9  1  0  0  0  0
  8 14  1  0  0  0  0
  9 10  1  0  0  0  0
  9 17  2  0  0  0  0
 11 12  2  0  0  0  0
 11 18  1  0  0  0  0
 12 13  1  0  0  0  0
 12 21  1  0  0  0  0
 13 14  2  0  0  0  0
 14 15  1  0  0  0  0
 15 16  2  0  0  0  0
 15 29  1  0  0  0  0
 16 17  1  0  0  0  0
 16 35  1  0  0  0  0
 17 28  1  0  0  0  0
 18 19  2  0  0  0  0
 18 22  1  0  0  0  0
 19 20  1  0  0  0  0
 19 31  1  0  0  0  0
 20 21  2  0  0  0  0
 20 25  1  0  0  0  0
 21 30  1  0  0  0  0
 22 42  1  0  0  0  0
 23 43  1  0  0  0  0
 24 32  2  0  0  0  0
 24 33  1  0  0  0  0
 25 39  2  0  0  0  0
 25 40  1  0  0  0  0
 33 34  1  0  0  0  0
 34 56  1  0  0  0  0
 34 57  1  0  0  0  0
 34 58  1  0  0  0  0
 35 36  2  0  0  0  0
 35 37  1  0  0  0  0
 37 38  1  0  0  0  0
 38 47  1  0  0  0  0
 38 48  1  0  0  0  0
 38 49  1  0  0  0  0
 40 41  1  0  0  0  0
 41 44  1  0  0  0  0
 41 45  1  0  0  0  0
 41 46  1  0  0  0  0
 42 53  1  0  0  0  0
 42 54  1  0  0  0  0
 42 55  1  0  0  0  0
 43 50  1  0  0  0  0
 43 51  1  0  0  0  0
 43 52  1  0  0  0  0
M  CHG  1   1  -1
M  END
