 energy: -109.784393135860 gnorm: 0.000838122569 xtb: 6.7.1 (edcfbbe)
          12022411403D

 58 62  0     0  0            999 V2000
   -2.1201    1.6065   -2.6585 C   0  0  0  0  0  0  0  0  0  0  0  0
   -1.9193    0.7098   -1.6172 C   0  0  0  0  0  0  0  0  0  0  0  0
   -1.0969    1.1036   -0.5287 C   0  0  0  0  0  0  0  0  0  0  0  0
   -0.2684    2.2715   -0.6797 C   0  0  0  0  0  0  0  0  0  0  0  0
   -0.4905    3.1494   -1.7731 C   0  0  0  0  0  0  0  0  0  0  0  0
   -1.4225    2.8154   -2.7069 C   0  0  0  0  0  0  0  0  0  0  0  0
   -0.9469    0.3627    0.6818 C   0  0  0  0  0  0  0  0  0  0  0  0
    0.2524    0.5621    1.3907 C   0  0  0  0  0  0  0  0  0  0  0  0
    1.1086    1.6462    1.0428 C   0  0  0  0  0  0  0  0  0  0  0  0
    0.7777    2.5171    0.0955 N   0  0  0  0  0  0  0  0  0  0  0  0
   -1.8779   -0.5532    1.2590 C   0  0  0  0  0  0  0  0  0  0  0  0
   -1.3560   -1.4894    2.2209 C   0  0  0  0  0  0  0  0  0  0  0  0
   -0.1559   -1.3644    2.7691 N   0  0  0  0  0  0  0  0  0  0  0  0
    0.6009   -0.3191    2.4547 C   0  0  0  0  0  0  0  0  0  0  0  0
    1.8479   -0.1370    3.0970 C   0  0  0  0  0  0  0  0  0  0  0  0
    2.6265    0.9609    2.7971 C   0  0  0  0  0  0  0  0  0  0  0  0
    2.2657    1.8722    1.8270 C   0  0  0  0  0  0  0  0  0  0  0  0
   -3.2785   -0.5241    1.0357 C   0  0  0  0  0  0  0  0  0  0  0  0
   -4.0478   -1.5748    1.5197 C   0  0  0  0  0  0  0  0  0  0  0  0
   -3.4924   -2.5670    2.3263 C   0  0  0  0  0  0  0  0  0  0  0  0
   -2.1873   -2.5293    2.7169 C   0  0  0  0  0  0  0  0  0  0  0  0
   -3.7787    0.5415    0.3903 O   0  0  0  0  0  0  0  0  0  0  0  0
   -2.4293   -0.5325   -1.5780 O   0  0  0  0  0  0  0  0  0  0  0  0
   -1.8192    3.9899   -4.0998 S   0  0  0  0  0  0  0  0  0  0  0  0
   -4.6230   -3.9453    2.8943 S   0  0  0  0  0  0  0  0  0  0  0  0
    0.1158    4.0354   -1.8740 H   0  0  0  0  0  0  0  0  0  0  0  0
   -2.8245    1.3920   -3.4462 H   0  0  0  0  0  0  0  0  0  0  0  0
    2.8441    2.7650    1.6455 H   0  0  0  0  0  0  0  0  0  0  0  0
    2.1881   -0.8676    3.8169 H   0  0  0  0  0  0  0  0  0  0  0  0
   -1.7703   -3.2297    3.4211 H   0  0  0  0  0  0  0  0  0  0  0  0
   -5.0974   -1.6642    1.2827 H   0  0  0  0  0  0  0  0  0  0  0  0
   -0.9024    5.0794   -3.8891 O   0  0  0  0  0  0  0  0  0  0  0  0
   -3.3001    4.4138   -3.4714 O   0  0  0  0  0  0  0  0  0  0  0  0
   -3.3532    5.5059   -2.5852 C   0  0  0  0  0  0  0  0  0  0  0  0
    4.2381    1.2012    3.7482 S   0  0  0  0  0  0  0  0  0  0  0  0
    4.3325   -0.0269    4.4951 O   0  0  0  0  0  0  0  0  0  0  0  0
    5.2317    1.0954    2.4379 O   0  0  0  0  0  0  0  0  0  0  0  0
    5.7664   -0.1605    2.0851 C   0  0  0  0  0  0  0  0  0  0  0  0
   -5.7798   -3.7358    2.0526 O   0  0  0  0  0  0  0  0  0  0  0  0
   -3.7266   -5.1763    2.2592 O   0  0  0  0  0  0  0  0  0  0  0  0
   -3.8838   -5.4861    0.8953 C   0  0  0  0  0  0  0  0  0  0  0  0
   -5.1815    0.6564    0.2401 C   0  0  0  0  0  0  0  0  0  0  0  0
   -3.1920   -0.9989   -2.6738 C   0  0  0  0  0  0  0  0  0  0  0  0
   -3.7716   -6.5630    0.7849 H   0  0  0  0  0  0  0  0  0  0  0  0
   -3.1228   -4.9703    0.3021 H   0  0  0  0  0  0  0  0  0  0  0  0
   -4.8804   -5.1866    0.5563 H   0  0  0  0  0  0  0  0  0  0  0  0
    6.8196   -0.0229    1.8481 H   0  0  0  0  0  0  0  0  0  0  0  0
    5.2380   -0.5560    1.2151 H   0  0  0  0  0  0  0  0  0  0  0  0
    5.6690   -0.8581    2.9225 H   0  0  0  0  0  0  0  0  0  0  0  0
   -3.4397   -2.0322   -2.4372 H   0  0  0  0  0  0  0  0  0  0  0  0
   -2.6144   -0.9685   -3.6012 H   0  0  0  0  0  0  0  0  0  0  0  0
   -4.1133   -0.4227   -2.7944 H   0  0  0  0  0  0  0  0  0  0  0  0
   -5.3443    1.6194   -0.2405 H   0  0  0  0  0  0  0  0  0  0  0  0
   -5.6864    0.6430    1.2091 H   0  0  0  0  0  0  0  0  0  0  0  0
   -5.5827   -0.1398   -0.3922 H   0  0  0  0  0  0  0  0  0  0  0  0
   -4.2515    6.0778   -2.8115 H   0  0  0  0  0  0  0  0  0  0  0  0
   -2.4727    6.1415   -2.7202 H   0  0  0  0  0  0  0  0  0  0  0  0
   -3.3881    5.1493   -1.5520 H   0  0  0  0  0  0  0  0  0  0  0  0
  1  2  2  0  0  0  0
  1  6  1  0  0  0  0
  1 27  1  0  0  0  0
  2  3  1  0  0  0  0
  2 23  1  0  0  0  0
  3  4  2  0  0  0  0
  3  7  1  0  0  0  0
  4  5  1  0  0  0  0
  4 10  1  0  0  0  0
  5  6  2  0  0  0  0
  5 26  1  0  0  0  0
  6 24  1  0  0  0  0
  7  8  2  0  0  0  0
  7 11  1  0  0  0  0
  8  9  1  0  0  0  0
  8 14  1  0  0  0  0
  9 10  1  0  0  0  0
  9 17  2  0  0  0  0
 11 12  2  0  0  0  0
 11 18  1  0  0  0  0
 12 13  1  0  0  0  0
 12 21  1  0  0  0  0
 13 14  2  0  0  0  0
 14 15  1  0  0  0  0
 15 16  2  0  0  0  0
 15 29  1  0  0  0  0
 16 17  1  0  0  0  0
 16 35  1  0  0  0  0
 17 28  1  0  0  0  0
 18 19  2  0  0  0  0
 18 22  1  0  0  0  0
 19 20  1  0  0  0  0
 19 31  1  0  0  0  0
 20 21  2  0  0  0  0
 20 25  1  0  0  0  0
 21 30  1  0  0  0  0
 22 42  1  0  0  0  0
 23 43  1  0  0  0  0
 24 32  2  0  0  0  0
 24 33  1  0  0  0  0
 25 39  2  0  0  0  0
 25 40  1  0  0  0  0
 33 34  1  0  0  0  0
 34 56  1  0  0  0  0
 34 57  1  0  0  0  0
 34 58  1  0  0  0  0
 35 36  2  0  0  0  0
 35 37  1  0  0  0  0
 37 38  1  0  0  0  0
 38 47  1  0  0  0  0
 38 48  1  0  0  0  0
 38 49  1  0  0  0  0
 40 41  1  0  0  0  0
 41 44  1  0  0  0  0
 41 45  1  0  0  0  0
 41 46  1  0  0  0  0
 42 53  1  0  0  0  0
 42 54  1  0  0  0  0
 42 55  1  0  0  0  0
 43 50  1  0  0  0  0
 43 51  1  0  0  0  0
 43 52  1  0  0  0  0
M  CHG  1   1   1
M  END
