 energy: -21.816070556291 gnorm: 0.000739337276 xtb: 6.7.1 (edcfbbe)
          12022411403D

116124  0     0  0            999 V2000
   -1.6725    2.0337   -1.2979 C   0  0  0  0  0  0  0  0  0  0  0  0
   -1.5890    0.9281   -0.4599 C   0  0  0  0  0  0  0  0  0  0  0  0
   -0.8213    1.0460    0.7512 C   0  0  0  0  0  0  0  0  0  0  0  0
    0.0572    2.1572    0.9015 C   0  0  0  0  0  0  0  0  0  0  0  0
   -0.0613    3.2292    0.0036 C   0  0  0  0  0  0  0  0  0  0  0  0
   -0.9288    3.1766   -1.0498 C   0  0  0  0  0  0  0  0  0  0  0  0
   -0.8085    0.0477    1.7766 C   0  0  0  0  0  0  0  0  0  0  0  0
    0.2998    0.0419    2.6284 C   0  0  0  0  0  0  0  0  0  0  0  0
    1.2103    1.1392    2.6133 C   0  0  0  0  0  0  0  0  0  0  0  0
    1.0358    2.2191    1.8296 N   0  0  0  0  0  0  0  0  0  0  0  0
   -1.8109   -0.9429    2.0305 C   0  0  0  0  0  0  0  0  0  0  0  0
   -1.4376   -2.0763    2.8115 C   0  0  0  0  0  0  0  0  0  0  0  0
   -0.2907   -2.1429    3.5245 N   0  0  0  0  0  0  0  0  0  0  0  0
    0.5088   -1.0602    3.5082 C   0  0  0  0  0  0  0  0  0  0  0  0
    1.6294   -1.0287    4.3450 C   0  0  0  0  0  0  0  0  0  0  0  0
    2.5099    0.0275    4.3171 C   0  0  0  0  0  0  0  0  0  0  0  0
    2.3097    1.1001    3.4781 C   0  0  0  0  0  0  0  0  0  0  0  0
   -3.1929   -0.7828    1.6614 C   0  0  0  0  0  0  0  0  0  0  0  0
   -4.0333   -1.8805    1.7859 C   0  0  0  0  0  0  0  0  0  0  0  0
   -3.6012   -3.0532    2.3811 C   0  0  0  0  0  0  0  0  0  0  0  0
   -2.3430   -3.1473    2.9114 C   0  0  0  0  0  0  0  0  0  0  0  0
   -3.6494    0.4817    1.3010 O   0  0  0  0  0  0  0  0  0  0  0  0
   -2.1388   -0.3101   -0.7775 O   0  0  0  0  0  0  0  0  0  0  0  0
   -1.0771    4.6124   -2.1410 S   0  0  0  0  0  0  0  0  0  0  0  0
   -4.7268   -4.4643    2.4896 S   0  0  0  0  0  0  0  0  0  0  0  0
    0.5397    4.1102    0.1489 H   0  0  0  0  0  0  0  0  0  0  0  0
   -2.2945    2.0093   -2.1730 H   0  0  0  0  0  0  0  0  0  0  0  0
    3.0069    1.9190    3.4727 H   0  0  0  0  0  0  0  0  0  0  0  0
    1.8162   -1.8507    5.0132 H   0  0  0  0  0  0  0  0  0  0  0  0
   -2.0386   -4.0410    3.4265 H   0  0  0  0  0  0  0  0  0  0  0  0
   -5.0482   -1.8401    1.4366 H   0  0  0  0  0  0  0  0  0  0  0  0
   -0.1464    5.5520   -1.4029 O   0  0  0  0  0  0  0  0  0  0  0  0
   -2.5748    5.1338   -1.5790 O   0  0  0  0  0  0  0  0  0  0  0  0
   -2.5081    5.6467   -0.2913 C   0  0  0  0  0  0  0  0  0  0  0  0
    3.9737    0.0084    5.3742 S   0  0  0  0  0  0  0  0  0  0  0  0
    3.7879   -1.3528    6.0074 O   0  0  0  0  0  0  0  0  0  0  0  0
    5.0947   -0.3463    4.1742 O   0  0  0  0  0  0  0  0  0  0  0  0
    4.9235   -1.6165    3.6401 C   0  0  0  0  0  0  0  0  0  0  0  0
   -5.7854   -3.9848    1.5173 O   0  0  0  0  0  0  0  0  0  0  0  0
   -3.8337   -5.5054    1.5183 O   0  0  0  0  0  0  0  0  0  0  0  0
   -3.7892   -5.0825    0.1968 C   0  0  0  0  0  0  0  0  0  0  0  0
   -5.0307    0.5738    1.0472 C   0  0  0  0  0  0  0  0  0  0  0  0
   -2.8935   -0.3461   -1.9628 C   0  0  0  0  0  0  0  0  0  0  0  0
   -3.2927   -5.8503   -0.4031 H   0  0  0  0  0  0  0  0  0  0  0  0
   -3.2339   -4.1431    0.1271 H   0  0  0  0  0  0  0  0  0  0  0  0
   -4.8148   -4.9376   -0.1580 H   0  0  0  0  0  0  0  0  0  0  0  0
    5.7584   -1.8310    2.9672 H   0  0  0  0  0  0  0  0  0  0  0  0
    3.9834   -1.6610    3.0841 H   0  0  0  0  0  0  0  0  0  0  0  0
    4.9097   -2.3439    4.4580 H   0  0  0  0  0  0  0  0  0  0  0  0
   -3.2986   -1.3518   -2.0803 H   0  0  0  0  0  0  0  0  0  0  0  0
   -2.2534   -0.1179   -2.8158 H   0  0  0  0  0  0  0  0  0  0  0  0
   -3.7192    0.3632   -1.8960 H   0  0  0  0  0  0  0  0  0  0  0  0
   -5.2675    1.6123    0.8116 H   0  0  0  0  0  0  0  0  0  0  0  0
   -5.5931    0.2760    1.9329 H   0  0  0  0  0  0  0  0  0  0  0  0
   -5.2921   -0.0536    0.1947 H   0  0  0  0  0  0  0  0  0  0  0  0
   -3.4772    6.0793   -0.0279 H   0  0  0  0  0  0  0  0  0  0  0  0
   -1.7304    6.4170   -0.2565 H   0  0  0  0  0  0  0  0  0  0  0  0
   -2.2637    4.8408    0.4048 H   0  0  0  0  0  0  0  0  0  0  0  0
   -2.9335    1.1722    4.3454 C   0  0  0  0  0  0  0  0  0  0  0  0
   -2.4562    0.5547    5.4924 C   0  0  0  0  0  0  0  0  0  0  0  0
   -1.3342    1.1496    6.1652 C   0  0  0  0  0  0  0  0  0  0  0  0
   -0.5752    2.1542    5.4988 C   0  0  0  0  0  0  0  0  0  0  0  0
   -1.1122    2.7264    4.3333 C   0  0  0  0  0  0  0  0  0  0  0  0
   -2.2771    2.2579    3.7925 C   0  0  0  0  0  0  0  0  0  0  0  0
   -0.8659    0.6972    7.4370 C   0  0  0  0  0  0  0  0  0  0  0  0
    0.4658    0.9798    7.7504 C   0  0  0  0  0  0  0  0  0  0  0  0
    1.1941    1.9203    6.9638 C   0  0  0  0  0  0  0  0  0  0  0  0
    0.6541    2.5501    5.9014 N   0  0  0  0  0  0  0  0  0  0  0  0
   -1.6204   -0.0046    8.4309 C   0  0  0  0  0  0  0  0  0  0  0  0
   -0.8946   -0.7271    9.4228 C   0  0  0  0  0  0  0  0  0  0  0  0
    0.4348   -0.5778    9.6228 N   0  0  0  0  0  0  0  0  0  0  0  0
    1.0724    0.3396    8.8699 C   0  0  0  0  0  0  0  0  0  0  0  0
    2.3937    0.6764    9.1786 C   0  0  0  0  0  0  0  0  0  0  0  0
    3.0842    1.6113    8.4428 C   0  0  0  0  0  0  0  0  0  0  0  0
    2.5059    2.2244    7.3511 C   0  0  0  0  0  0  0  0  0  0  0  0
   -3.0502    0.0983    8.5524 C   0  0  0  0  0  0  0  0  0  0  0  0
   -3.6922   -0.7617    9.4322 C   0  0  0  0  0  0  0  0  0  0  0  0
   -2.9774   -1.6056   10.2645 C   0  0  0  0  0  0  0  0  0  0  0  0
   -1.6092   -1.5739   10.2883 C   0  0  0  0  0  0  0  0  0  0  0  0
   -3.7130    1.1029    7.8540 O   0  0  0  0  0  0  0  0  0  0  0  0
   -2.9585   -0.6506    5.9724 O   0  0  0  0  0  0  0  0  0  0  0  0
   -2.9726    3.0210    2.3089 S   0  0  0  0  0  0  0  0  0  0  0  0
   -3.8730   -2.7458   11.3463 S   0  0  0  0  0  0  0  0  0  0  0  0
   -0.5924    3.5345    3.8495 H   0  0  0  0  0  0  0  0  0  0  0  0
   -3.7995    0.7915    3.8379 H   0  0  0  0  0  0  0  0  0  0  0  0
    3.0626    2.9473    6.7824 H   0  0  0  0  0  0  0  0  0  0  0  0
    2.8754    0.2106   10.0202 H   0  0  0  0  0  0  0  0  0  0  0  0
   -1.0661   -2.1934   10.9796 H   0  0  0  0  0  0  0  0  0  0  0  0
   -4.7644   -0.7902    9.4915 H   0  0  0  0  0  0  0  0  0  0  0  0
   -2.2148    4.3285    2.3336 O   0  0  0  0  0  0  0  0  0  0  0  0
   -4.4426    3.4896    2.9688 O   0  0  0  0  0  0  0  0  0  0  0  0
   -4.2848    4.4120    3.9956 C   0  0  0  0  0  0  0  0  0  0  0  0
    4.7730    2.0373    8.9351 S   0  0  0  0  0  0  0  0  0  0  0  0
    4.9102    1.0674   10.0911 O   0  0  0  0  0  0  0  0  0  0  0  0
    5.5414    1.1918    7.6985 O   0  0  0  0  0  0  0  0  0  0  0  0
    5.6291   -0.1692    7.9635 C   0  0  0  0  0  0  0  0  0  0  0  0
   -5.2159   -2.7169   10.6453 O   0  0  0  0  0  0  0  0  0  0  0  0
   -3.2104   -4.1609   10.7284 O   0  0  0  0  0  0  0  0  0  0  0  0
   -3.6200   -4.4078    9.4248 C   0  0  0  0  0  0  0  0  0  0  0  0
   -5.0999    1.1725    8.0759 C   0  0  0  0  0  0  0  0  0  0  0  0
   -4.0763   -1.1455    5.2842 C   0  0  0  0  0  0  0  0  0  0  0  0
   -3.2417   -5.3858    9.1145 H   0  0  0  0  0  0  0  0  0  0  0  0
   -3.2283   -3.6324    8.7606 H   0  0  0  0  0  0  0  0  0  0  0  0
   -4.7145   -4.4060    9.3966 H   0  0  0  0  0  0  0  0  0  0  0  0
    6.2012   -0.6497    7.1643 H   0  0  0  0  0  0  0  0  0  0  0  0
    4.6223   -0.5969    8.0018 H   0  0  0  0  0  0  0  0  0  0  0  0
    6.1303   -0.3098    8.9265 H   0  0  0  0  0  0  0  0  0  0  0  0
   -4.3976   -2.0704    5.7642 H   0  0  0  0  0  0  0  0  0  0  0  0
   -3.7944   -1.3553    4.2541 H   0  0  0  0  0  0  0  0  0  0  0  0
   -4.8891   -0.4195    5.3243 H   0  0  0  0  0  0  0  0  0  0  0  0
   -5.5006    1.9958    7.4836 H   0  0  0  0  0  0  0  0  0  0  0  0
   -5.2964    1.3647    9.1314 H   0  0  0  0  0  0  0  0  0  0  0  0
   -5.5727    0.2427    7.7575 H   0  0  0  0  0  0  0  0  0  0  0  0
   -5.2694    4.7827    4.2937 H   0  0  0  0  0  0  0  0  0  0  0  0
   -3.6714    5.2427    3.6323 H   0  0  0  0  0  0  0  0  0  0  0  0
   -3.7984    3.9364    4.8516 H   0  0  0  0  0  0  0  0  0  0  0  0
  1  2  2  0  0  0  0
  1  6  1  0  0  0  0
  1 27  1  0  0  0  0
  2  3  1  0  0  0  0
  2 23  1  0  0  0  0
  3  4  2  0  0  0  0
  3  7  1  0  0  0  0
  4  5  1  0  0  0  0
  4 10  1  0  0  0  0
  5  6  2  0  0  0  0
  5 26  1  0  0  0  0
  6 24  1  0  0  0  0
  7  8  2  0  0  0  0
  7 11  1  0  0  0  0
  8  9  1  0  0  0  0
  8 14  1  0  0  0  0
  9 10  1  0  0  0  0
  9 17  2  0  0  0  0
 11 12  2  0  0  0  0
 11 18  1  0  0  0  0
 12 13  1  0  0  0  0
 12 21  1  0  0  0  0
 13 14  2  0  0  0  0
 14 15  1  0  0  0  0
 15 16  2  0  0  0  0
 15 29  1  0  0  0  0
 16 17  1  0  0  0  0
 16 35  1  0  0  0  0
 17 28  1  0  0  0  0
 18 19  2  0  0  0  0
 18 22  1  0  0  0  0
 19 20  1  0  0  0  0
 19 31  1  0  0  0  0
 20 21  2  0  0  0  0
 20 25  1  0  0  0  0
 21 30  1  0  0  0  0
 22 42  1  0  0  0  0
 23 43  1  0  0  0  0
 24 32  2  0  0  0  0
 24 33  1  0  0  0  0
 25 39  2  0  0  0  0
 25 40  1  0  0  0  0
 33 34  1  0  0  0  0
 34 56  1  0  0  0  0
 34 57  1  0  0  0  0
 34 58  1  0  0  0  0
 35 36  2  0  0  0  0
 35 37  1  0  0  0  0
 37 38  1  0  0  0  0
 38 47  1  0  0  0  0
 38 48  1  0  0  0  0
 38 49  1  0  0  0  0
 40 41  1  0  0  0  0
 41 44  1  0  0  0  0
 41 45  1  0  0  0  0
 41 46  1  0  0  0  0
 42 53  1  0  0  0  0
 42 54  1  0  0  0  0
 42 55  1  0  0  0  0
 43 50  1  0  0  0  0
 43 51  1  0  0  0  0
 43 52  1  0  0  0  0
 59 60  2  0  0  0  0
 59 64  1  0  0  0  0
 59 85  1  0  0  0  0
 60 61  1  0  0  0  0
 60 81  1  0  0  0  0
 61 62  2  0  0  0  0
 61 65  1  0  0  0  0
 62 63  1  0  0  0  0
 62 68  1  0  0  0  0
 63 64  2  0  0  0  0
 63 84  1  0  0  0  0
 64 82  1  0  0  0  0
 65 66  2  0  0  0  0
 65 69  1  0  0  0  0
 66 67  1  0  0  0  0
 66 72  1  0  0  0  0
 67 68  1  0  0  0  0
 67 75  2  0  0  0  0
 69 70  2  0  0  0  0
 69 76  1  0  0  0  0
 70 71  1  0  0  0  0
 70 79  1  0  0  0  0
 71 72  2  0  0  0  0
 72 73  1  0  0  0  0
 73 74  2  0  0  0  0
 73 87  1  0  0  0  0
 74 75  1  0  0  0  0
 74 93  1  0  0  0  0
 75 86  1  0  0  0  0
 76 77  2  0  0  0  0
 76 80  1  0  0  0  0
 77 78  1  0  0  0  0
 77 89  1  0  0  0  0
 78 79  2  0  0  0  0
 78 83  1  0  0  0  0
 79 88  1  0  0  0  0
 80100  1  0  0  0  0
 81101  1  0  0  0  0
 82 90  2  0  0  0  0
 82 91  1  0  0  0  0
 83 97  2  0  0  0  0
 83 98  1  0  0  0  0
 91 92  1  0  0  0  0
 92114  1  0  0  0  0
 92115  1  0  0  0  0
 92116  1  0  0  0  0
 93 94  2  0  0  0  0
 93 95  1  0  0  0  0
 95 96  1  0  0  0  0
 96105  1  0  0  0  0
 96106  1  0  0  0  0
 96107  1  0  0  0  0
 98 99  1  0  0  0  0
 99102  1  0  0  0  0
 99103  1  0  0  0  0
 99104  1  0  0  0  0
100111  1  0  0  0  0
100112  1  0  0  0  0
100113  1  0  0  0  0
101108  1  0  0  0  0
101109  1  0  0  0  0
101110  1  0  0  0  0
M  END
