 energy: -220.471201125048 gnorm: 0.000399256311 xtb: 6.7.1 (edcfbbe)
          12022411413D

116124  0     0  0            999 V2000
   -1.6490    2.0252   -1.3953 C   0  0  0  0  0  0  0  0  0  0  0  0
   -1.6189    0.9547   -0.5232 C   0  0  0  0  0  0  0  0  0  0  0  0
   -0.9477    1.0921    0.7212 C   0  0  0  0  0  0  0  0  0  0  0  0
   -0.0783    2.2187    0.9062 C   0  0  0  0  0  0  0  0  0  0  0  0
   -0.1366    3.2948   -0.0120 C   0  0  0  0  0  0  0  0  0  0  0  0
   -0.9428    3.1966   -1.1032 C   0  0  0  0  0  0  0  0  0  0  0  0
   -0.9717    0.1191    1.7677 C   0  0  0  0  0  0  0  0  0  0  0  0
    0.0960    0.1418    2.6794 C   0  0  0  0  0  0  0  0  0  0  0  0
    0.9993    1.2472    2.6855 C   0  0  0  0  0  0  0  0  0  0  0  0
    0.8377    2.2831    1.8675 N   0  0  0  0  0  0  0  0  0  0  0  0
   -1.9649   -0.8880    1.9772 C   0  0  0  0  0  0  0  0  0  0  0  0
   -1.5838   -2.0096    2.7822 C   0  0  0  0  0  0  0  0  0  0  0  0
   -0.4952   -2.0222    3.5502 N   0  0  0  0  0  0  0  0  0  0  0  0
    0.2664   -0.9333    3.6014 C   0  0  0  0  0  0  0  0  0  0  0  0
    1.3192   -0.8553    4.5387 C   0  0  0  0  0  0  0  0  0  0  0  0
    2.1760    0.2214    4.5263 C   0  0  0  0  0  0  0  0  0  0  0  0
    2.0480    1.2617    3.6295 C   0  0  0  0  0  0  0  0  0  0  0  0
   -3.3083   -0.8131    1.5206 C   0  0  0  0  0  0  0  0  0  0  0  0
   -4.1121   -1.9321    1.6005 C   0  0  0  0  0  0  0  0  0  0  0  0
   -3.6364   -3.1026    2.1966 C   0  0  0  0  0  0  0  0  0  0  0  0
   -2.4267   -3.1484    2.8243 C   0  0  0  0  0  0  0  0  0  0  0  0
   -3.7432    0.4044    1.1113 O   0  0  0  0  0  0  0  0  0  0  0  0
   -2.1289   -0.2699   -0.8109 O   0  0  0  0  0  0  0  0  0  0  0  0
   -1.1069    4.5815   -2.3020 S   0  0  0  0  0  0  0  0  0  0  0  0
   -4.7139   -4.5907    2.1798 S   0  0  0  0  0  0  0  0  0  0  0  0
    0.4896    4.1571    0.1478 H   0  0  0  0  0  0  0  0  0  0  0  0
   -2.1921    1.9808   -2.3255 H   0  0  0  0  0  0  0  0  0  0  0  0
    2.7272    2.0976    3.6421 H   0  0  0  0  0  0  0  0  0  0  0  0
    1.4430   -1.6388    5.2698 H   0  0  0  0  0  0  0  0  0  0  0  0
   -2.0986   -4.0127    3.3772 H   0  0  0  0  0  0  0  0  0  0  0  0
   -5.1220   -1.9475    1.2215 H   0  0  0  0  0  0  0  0  0  0  0  0
    0.0049    5.4585   -2.0050 O   0  0  0  0  0  0  0  0  0  0  0  0
   -2.4835    5.2327   -1.6326 O   0  0  0  0  0  0  0  0  0  0  0  0
   -2.3101    6.0292   -0.4805 C   0  0  0  0  0  0  0  0  0  0  0  0
    3.5516    0.2787    5.7373 S   0  0  0  0  0  0  0  0  0  0  0  0
    3.1833   -0.7690    6.6710 O   0  0  0  0  0  0  0  0  0  0  0  0
    4.6915   -0.3522    4.7077 O   0  0  0  0  0  0  0  0  0  0  0  0
    4.6043   -1.7236    4.4180 C   0  0  0  0  0  0  0  0  0  0  0  0
   -5.9157   -4.1224    1.5130 O   0  0  0  0  0  0  0  0  0  0  0  0
   -3.8066   -5.4473    1.0733 O   0  0  0  0  0  0  0  0  0  0  0  0
   -3.8120   -4.9724   -0.2474 C   0  0  0  0  0  0  0  0  0  0  0  0
   -5.1018    0.5663    0.7759 C   0  0  0  0  0  0  0  0  0  0  0  0
   -2.7428   -0.4714   -2.0613 C   0  0  0  0  0  0  0  0  0  0  0  0
   -3.5931   -5.8158   -0.9005 H   0  0  0  0  0  0  0  0  0  0  0  0
   -3.0535   -4.1937   -0.3803 H   0  0  0  0  0  0  0  0  0  0  0  0
   -4.7996   -4.5680   -0.4941 H   0  0  0  0  0  0  0  0  0  0  0  0
    5.6091   -2.0766    4.1878 H   0  0  0  0  0  0  0  0  0  0  0  0
    3.9446   -1.8970    3.5616 H   0  0  0  0  0  0  0  0  0  0  0  0
    4.2154   -2.2626    5.2873 H   0  0  0  0  0  0  0  0  0  0  0  0
   -3.0609   -1.5134   -2.0667 H   0  0  0  0  0  0  0  0  0  0  0  0
   -2.0403   -0.3041   -2.8836 H   0  0  0  0  0  0  0  0  0  0  0  0
   -3.6158    0.1752   -2.1918 H   0  0  0  0  0  0  0  0  0  0  0  0
   -5.2228    1.6288    0.5741 H   0  0  0  0  0  0  0  0  0  0  0  0
   -5.7555    0.2818    1.6055 H   0  0  0  0  0  0  0  0  0  0  0  0
   -5.3701   -0.0156   -0.1108 H   0  0  0  0  0  0  0  0  0  0  0  0
   -3.1298    6.7458   -0.4598 H   0  0  0  0  0  0  0  0  0  0  0  0
   -1.3583    6.5655   -0.5440 H   0  0  0  0  0  0  0  0  0  0  0  0
   -2.3197    5.4130    0.4216 H   0  0  0  0  0  0  0  0  0  0  0  0
   -2.8451    0.9903    4.3645 C   0  0  0  0  0  0  0  0  0  0  0  0
   -2.3633    0.4425    5.5372 C   0  0  0  0  0  0  0  0  0  0  0  0
   -1.2650    1.0586    6.1934 C   0  0  0  0  0  0  0  0  0  0  0  0
   -0.5498    2.0956    5.5151 C   0  0  0  0  0  0  0  0  0  0  0  0
   -1.1013    2.6585    4.3387 C   0  0  0  0  0  0  0  0  0  0  0  0
   -2.2277    2.1130    3.8050 C   0  0  0  0  0  0  0  0  0  0  0  0
   -0.7629    0.6652    7.4725 C   0  0  0  0  0  0  0  0  0  0  0  0
    0.5740    0.9908    7.7513 C   0  0  0  0  0  0  0  0  0  0  0  0
    1.2554    1.9270    6.9210 C   0  0  0  0  0  0  0  0  0  0  0  0
    0.6498    2.5312    5.9016 N   0  0  0  0  0  0  0  0  0  0  0  0
   -1.4791   -0.0139    8.5043 C   0  0  0  0  0  0  0  0  0  0  0  0
   -0.6926   -0.6917    9.4916 C   0  0  0  0  0  0  0  0  0  0  0  0
    0.6205   -0.5058    9.6321 N   0  0  0  0  0  0  0  0  0  0  0  0
    1.2305    0.3923    8.8690 C   0  0  0  0  0  0  0  0  0  0  0  0
    2.5804    0.7328    9.1193 C   0  0  0  0  0  0  0  0  0  0  0  0
    3.2077    1.6636    8.3284 C   0  0  0  0  0  0  0  0  0  0  0  0
    2.5889    2.2618    7.2434 C   0  0  0  0  0  0  0  0  0  0  0  0
   -2.8869    0.0393    8.6775 C   0  0  0  0  0  0  0  0  0  0  0  0
   -3.4791   -0.7848    9.6138 C   0  0  0  0  0  0  0  0  0  0  0  0
   -2.6987   -1.6085   10.4262 C   0  0  0  0  0  0  0  0  0  0  0  0
   -1.3364   -1.5487   10.4168 C   0  0  0  0  0  0  0  0  0  0  0  0
   -3.5614    0.9683    7.9550 O   0  0  0  0  0  0  0  0  0  0  0  0
   -2.8306   -0.7056    6.0837 O   0  0  0  0  0  0  0  0  0  0  0  0
   -2.9059    2.7654    2.2429 S   0  0  0  0  0  0  0  0  0  0  0  0
   -3.5585   -2.7660   11.5645 S   0  0  0  0  0  0  0  0  0  0  0  0
   -0.5998    3.4832    3.8592 H   0  0  0  0  0  0  0  0  0  0  0  0
   -3.7032    0.5778    3.8608 H   0  0  0  0  0  0  0  0  0  0  0  0
    3.0925    3.0163    6.6606 H   0  0  0  0  0  0  0  0  0  0  0  0
    3.1036    0.2627    9.9369 H   0  0  0  0  0  0  0  0  0  0  0  0
   -0.7322   -2.1073   11.1119 H   0  0  0  0  0  0  0  0  0  0  0  0
   -4.5473   -0.8210    9.7615 H   0  0  0  0  0  0  0  0  0  0  0  0
   -2.2632    4.0614    2.1080 O   0  0  0  0  0  0  0  0  0  0  0  0
   -4.4489    3.0406    2.8400 O   0  0  0  0  0  0  0  0  0  0  0  0
   -4.5578    4.0930    3.7626 C   0  0  0  0  0  0  0  0  0  0  0  0
    4.9915    2.0303    8.5335 S   0  0  0  0  0  0  0  0  0  0  0  0
    5.3463    1.5226    9.8411 O   0  0  0  0  0  0  0  0  0  0  0  0
    5.5001    0.9012    7.3895 O   0  0  0  0  0  0  0  0  0  0  0  0
    5.9435   -0.3430    7.8759 C   0  0  0  0  0  0  0  0  0  0  0  0
   -4.9632   -2.4727   11.3423 O   0  0  0  0  0  0  0  0  0  0  0  0
   -3.1833   -4.1515   10.7086 O   0  0  0  0  0  0  0  0  0  0  0  0
   -3.8203   -4.3156    9.4691 C   0  0  0  0  0  0  0  0  0  0  0  0
   -4.9330    1.1518    8.2157 C   0  0  0  0  0  0  0  0  0  0  0  0
   -3.9849   -1.2985    5.5401 C   0  0  0  0  0  0  0  0  0  0  0  0
   -3.8580   -5.3833    9.2576 H   0  0  0  0  0  0  0  0  0  0  0  0
   -3.2655   -3.8003    8.6778 H   0  0  0  0  0  0  0  0  0  0  0  0
   -4.8404   -3.9191    9.5192 H   0  0  0  0  0  0  0  0  0  0  0  0
    6.8260   -0.6283    7.3041 H   0  0  0  0  0  0  0  0  0  0  0  0
    5.1547   -1.0877    7.7553 H   0  0  0  0  0  0  0  0  0  0  0  0
    6.2018   -0.2569    8.9363 H   0  0  0  0  0  0  0  0  0  0  0  0
   -4.2167   -2.1398    6.1920 H   0  0  0  0  0  0  0  0  0  0  0  0
   -3.8092   -1.6692    4.5265 H   0  0  0  0  0  0  0  0  0  0  0  0
   -4.8274   -0.5998    5.5331 H   0  0  0  0  0  0  0  0  0  0  0  0
   -5.2458    1.9744    7.5740 H   0  0  0  0  0  0  0  0  0  0  0  0
   -5.1073    1.4209    9.2618 H   0  0  0  0  0  0  0  0  0  0  0  0
   -5.5158    0.2583    7.9716 H   0  0  0  0  0  0  0  0  0  0  0  0
   -5.5773    4.4740    3.7132 H   0  0  0  0  0  0  0  0  0  0  0  0
   -3.8555    4.8899    3.4982 H   0  0  0  0  0  0  0  0  0  0  0  0
   -4.3384    3.7443    4.7770 H   0  0  0  0  0  0  0  0  0  0  0  0
  1  2  2  0  0  0  0
  1  6  1  0  0  0  0
  1 27  1  0  0  0  0
  2  3  1  0  0  0  0
  2 23  1  0  0  0  0
  3  4  2  0  0  0  0
  3  7  1  0  0  0  0
  4  5  1  0  0  0  0
  4 10  1  0  0  0  0
  5  6  2  0  0  0  0
  5 26  1  0  0  0  0
  6 24  1  0  0  0  0
  7  8  2  0  0  0  0
  7 11  1  0  0  0  0
  8  9  1  0  0  0  0
  8 14  1  0  0  0  0
  9 10  1  0  0  0  0
  9 17  2  0  0  0  0
 11 12  2  0  0  0  0
 11 18  1  0  0  0  0
 12 13  1  0  0  0  0
 12 21  1  0  0  0  0
 13 14  2  0  0  0  0
 14 15  1  0  0  0  0
 15 16  2  0  0  0  0
 15 29  1  0  0  0  0
 16 17  1  0  0  0  0
 16 35  1  0  0  0  0
 17 28  1  0  0  0  0
 18 19  2  0  0  0  0
 18 22  1  0  0  0  0
 19 20  1  0  0  0  0
 19 31  1  0  0  0  0
 20 21  2  0  0  0  0
 20 25  1  0  0  0  0
 21 30  1  0  0  0  0
 22 42  1  0  0  0  0
 23 43  1  0  0  0  0
 24 32  2  0  0  0  0
 24 33  1  0  0  0  0
 25 39  2  0  0  0  0
 25 40  1  0  0  0  0
 33 34  1  0  0  0  0
 34 56  1  0  0  0  0
 34 57  1  0  0  0  0
 34 58  1  0  0  0  0
 35 36  2  0  0  0  0
 35 37  1  0  0  0  0
 37 38  1  0  0  0  0
 38 47  1  0  0  0  0
 38 48  1  0  0  0  0
 38 49  1  0  0  0  0
 40 41  1  0  0  0  0
 41 44  1  0  0  0  0
 41 45  1  0  0  0  0
 41 46  1  0  0  0  0
 42 53  1  0  0  0  0
 42 54  1  0  0  0  0
 42 55  1  0  0  0  0
 43 50  1  0  0  0  0
 43 51  1  0  0  0  0
 43 52  1  0  0  0  0
 59 60  2  0  0  0  0
 59 64  1  0  0  0  0
 59 85  1  0  0  0  0
 60 61  1  0  0  0  0
 60 81  1  0  0  0  0
 61 62  2  0  0  0  0
 61 65  1  0  0  0  0
 62 63  1  0  0  0  0
 62 68  1  0  0  0  0
 63 64  2  0  0  0  0
 63 84  1  0  0  0  0
 64 82  1  0  0  0  0
 65 66  2  0  0  0  0
 65 69  1  0  0  0  0
 66 67  1  0  0  0  0
 66 72  1  0  0  0  0
 67 68  1  0  0  0  0
 67 75  2  0  0  0  0
 69 70  2  0  0  0  0
 69 76  1  0  0  0  0
 70 71  1  0  0  0  0
 70 79  1  0  0  0  0
 71 72  2  0  0  0  0
 72 73  1  0  0  0  0
 73 74  2  0  0  0  0
 73 87  1  0  0  0  0
 74 75  1  0  0  0  0
 74 93  1  0  0  0  0
 75 86  1  0  0  0  0
 76 77  2  0  0  0  0
 76 80  1  0  0  0  0
 77 78  1  0  0  0  0
 77 89  1  0  0  0  0
 78 79  2  0  0  0  0
 78 83  1  0  0  0  0
 79 88  1  0  0  0  0
 80100  1  0  0  0  0
 81101  1  0  0  0  0
 82 90  2  0  0  0  0
 82 91  1  0  0  0  0
 83 97  2  0  0  0  0
 83 98  1  0  0  0  0
 91 92  1  0  0  0  0
 92114  1  0  0  0  0
 92115  1  0  0  0  0
 92116  1  0  0  0  0
 93 94  2  0  0  0  0
 93 95  1  0  0  0  0
 95 96  1  0  0  0  0
 96105  1  0  0  0  0
 96106  1  0  0  0  0
 96107  1  0  0  0  0
 98 99  1  0  0  0  0
 99102  1  0  0  0  0
 99103  1  0  0  0  0
 99104  1  0  0  0  0
100111  1  0  0  0  0
100112  1  0  0  0  0
100113  1  0  0  0  0
101108  1  0  0  0  0
101109  1  0  0  0  0
101110  1  0  0  0  0
M  END
