energy: -110.210595618232 gnorm: 0.000454095298 xtb: 6.7.1 (edcfbbe)_energy: -110.210595618232 gnorm: 0.000454095298 xtb: 6.7.1 (edcfbbe)
 OpenBabel12022411403D

116124  0  0  0  0  0  0  0  0999 V2000
   -2.0533    1.5462   -2.6638 C   0  0  0  0  0  0  0  0  0  0  0  0
   -1.8511    0.6965   -1.5943 C   0  0  0  0  0  0  0  0  0  0  0  0
   -1.0337    1.1238   -0.5146 C   0  0  0  0  0  0  0  0  0  0  0  0
   -0.2308    2.2993   -0.6784 C   0  0  0  0  0  0  0  0  0  0  0  0
   -0.4922    3.1600   -1.7728 C   0  0  0  0  0  0  0  0  0  0  0  0
   -1.4101    2.7879   -2.7061 C   0  0  0  0  0  0  0  0  0  0  0  0
   -0.8756    0.4071    0.7099 C   0  0  0  0  0  0  0  0  0  0  0  0
    0.3149    0.6333    1.4189 C   0  0  0  0  0  0  0  0  0  0  0  0
    1.1396    1.7458    1.0754 C   0  0  0  0  0  0  0  0  0  0  0  0
    0.7886    2.6064    0.1217 N   0  0  0  0  0  0  0  0  0  0  0  0
   -1.7997   -0.5129    1.2923 C   0  0  0  0  0  0  0  0  0  0  0  0
   -1.2719   -1.4280    2.2607 C   0  0  0  0  0  0  0  0  0  0  0  0
   -0.0526   -1.3139    2.7874 N   0  0  0  0  0  0  0  0  0  0  0  0
    0.6871   -0.2537    2.4729 C   0  0  0  0  0  0  0  0  0  0  0  0
    1.9059   -0.0197    3.1452 C   0  0  0  0  0  0  0  0  0  0  0  0
    2.6800    1.0701    2.8089 C   0  0  0  0  0  0  0  0  0  0  0  0
    2.3224    1.9598    1.8148 C   0  0  0  0  0  0  0  0  0  0  0  0
   -3.1976   -0.5068    1.0490 C   0  0  0  0  0  0  0  0  0  0  0  0
   -3.9705   -1.5369    1.5488 C   0  0  0  0  0  0  0  0  0  0  0  0
   -3.3964   -2.5331    2.3395 C   0  0  0  0  0  0  0  0  0  0  0  0
   -2.0921   -2.4810    2.7336 C   0  0  0  0  0  0  0  0  0  0  0  0
   -3.7002    0.5666    0.3926 O   0  0  0  0  0  0  0  0  0  0  0  0
   -2.3235   -0.5731   -1.5320 O   0  0  0  0  0  0  0  0  0  0  0  0
   -1.8440    3.8906   -4.1056 S   0  0  2  0  0  0  0  0  0  0  0  0
   -4.4633   -3.9215    2.8966 S   0  0  1  0  0  0  0  0  0  0  0  0
    0.0638    4.0783   -1.8717 H   0  0  0  0  0  0  0  0  0  0  0  0
   -2.7040    1.2851   -3.4827 H   0  0  0  0  0  0  0  0  0  0  0  0
    2.9426    2.8083    1.5748 H   0  0  0  0  0  0  0  0  0  0  0  0
    2.2246   -0.6914    3.9273 H   0  0  0  0  0  0  0  0  0  0  0  0
   -1.6703   -3.1985    3.4176 H   0  0  0  0  0  0  0  0  0  0  0  0
   -5.0299   -1.6109    1.3588 H   0  0  0  0  0  0  0  0  0  0  0  0
   -1.0295    5.0688   -3.9020 O   0  0  0  0  0  0  0  0  0  0  0  0
   -3.3934    4.2224   -3.5538 O   0  0  0  0  0  0  0  0  0  0  0  0
   -3.4841    5.0796   -2.4454 C   0  0  0  0  0  0  0  0  0  0  0  0
    4.2806    1.3469    3.6803 S   0  0  1  0  0  0  0  0  0  0  0  0
    4.3370    0.2723    4.6497 O   0  0  0  0  0  0  0  0  0  0  0  0
    5.2465    0.9251    2.3827 O   0  0  0  0  0  0  0  0  0  0  0  0
    5.3161   -0.4419    2.0692 C   0  0  0  0  0  0  0  0  0  0  0  0
   -5.7373   -3.6381    2.2607 O   0  0  0  0  0  0  0  0  0  0  0  0
   -3.6891   -5.0993    2.0000 O   0  0  0  0  0  0  0  0  0  0  0  0
   -3.8517   -5.0342    0.6078 C   0  0  0  0  0  0  0  0  0  0  0  0
   -5.0926    0.6465    0.1972 C   0  0  0  0  0  0  0  0  0  0  0  0
   -3.1037   -1.0570   -2.5985 C   0  0  0  0  0  0  0  0  0  0  0  0
   -3.7111   -6.0393    0.2125 H   0  0  0  0  0  0  0  0  0  0  0  0
   -3.1158   -4.3550    0.1642 H   0  0  0  0  0  0  0  0  0  0  0  0
   -4.8622   -4.6868    0.3662 H   0  0  0  0  0  0  0  0  0  0  0  0
    6.2842   -0.6245    1.6048 H   0  0  0  0  0  0  0  0  0  0  0  0
    4.5146   -0.7213    1.3776 H   0  0  0  0  0  0  0  0  0  0  0  0
    5.2316   -1.0392    2.9832 H   0  0  0  0  0  0  0  0  0  0  0  0
   -3.3693   -2.0781   -2.3277 H   0  0  0  0  0  0  0  0  0  0  0  0
   -2.5382   -1.0667   -3.5356 H   0  0  0  0  0  0  0  0  0  0  0  0
   -4.0159   -0.4673   -2.7310 H   0  0  0  0  0  0  0  0  0  0  0  0
   -5.2599    1.5824   -0.3342 H   0  0  0  0  0  0  0  0  0  0  0  0
   -5.6290    0.6682    1.1505 H   0  0  0  0  0  0  0  0  0  0  0  0
   -5.4639   -0.1866   -0.4071 H   0  0  0  0  0  0  0  0  0  0  0  0
   -4.4433    5.5924   -2.5024 H   0  0  0  0  0  0  0  0  0  0  0  0
   -2.6750    5.8167   -2.4768 H   0  0  0  0  0  0  0  0  0  0  0  0
   -3.4191    4.5123   -1.5111 H   0  0  0  0  0  0  0  0  0  0  0  0
   -2.0533    1.5462    5.3362 C   0  0  0  0  0  0  0  0  0  0  0  0
   -1.8511    0.6965    6.4057 C   0  0  0  0  0  0  0  0  0  0  0  0
   -1.0337    1.1238    7.4854 C   0  0  0  0  0  0  0  0  0  0  0  0
   -0.2308    2.2993    7.3216 C   0  0  0  0  0  0  0  0  0  0  0  0
   -0.4922    3.1600    6.2272 C   0  0  0  0  0  0  0  0  0  0  0  0
   -1.4101    2.7879    5.2939 C   0  0  0  0  0  0  0  0  0  0  0  0
   -0.8756    0.4071    8.7099 C   0  0  0  0  0  0  0  0  0  0  0  0
    0.3149    0.6333    9.4189 C   0  0  0  0  0  0  0  0  0  0  0  0
    1.1396    1.7458    9.0754 C   0  0  0  0  0  0  0  0  0  0  0  0
    0.7886    2.6064    8.1217 N   0  0  0  0  0  0  0  0  0  0  0  0
   -1.7997   -0.5129    9.2923 C   0  0  0  0  0  0  0  0  0  0  0  0
   -1.2719   -1.4280   10.2607 C   0  0  0  0  0  0  0  0  0  0  0  0
   -0.0526   -1.3139   10.7874 N   0  0  0  0  0  0  0  0  0  0  0  0
    0.6871   -0.2537   10.4729 C   0  0  0  0  0  0  0  0  0  0  0  0
    1.9059   -0.0197   11.1452 C   0  0  0  0  0  0  0  0  0  0  0  0
    2.6800    1.0701   10.8089 C   0  0  0  0  0  0  0  0  0  0  0  0
    2.3224    1.9598    9.8148 C   0  0  0  0  0  0  0  0  0  0  0  0
   -3.1976   -0.5068    9.0490 C   0  0  0  0  0  0  0  0  0  0  0  0
   -3.9705   -1.5369    9.5488 C   0  0  0  0  0  0  0  0  0  0  0  0
   -3.3964   -2.5331   10.3395 C   0  0  0  0  0  0  0  0  0  0  0  0
   -2.0921   -2.4810   10.7336 C   0  0  0  0  0  0  0  0  0  0  0  0
   -3.7002    0.5666    8.3926 O   0  0  0  0  0  0  0  0  0  0  0  0
   -2.3235   -0.5731    6.4680 O   0  0  0  0  0  0  0  0  0  0  0  0
   -1.8440    3.8906    3.8944 S   0  0  2  0  0  0  0  0  0  0  0  0
   -4.4633   -3.9215   10.8966 S   0  0  1  0  0  0  0  0  0  0  0  0
    0.0638    4.0783    6.1283 H   0  0  0  0  0  0  0  0  0  0  0  0
   -2.7040    1.2851    4.5173 H   0  0  0  0  0  0  0  0  0  0  0  0
    2.9426    2.8083    9.5748 H   0  0  0  0  0  0  0  0  0  0  0  0
    2.2246   -0.6914   11.9273 H   0  0  0  0  0  0  0  0  0  0  0  0
   -1.6703   -3.1985   11.4176 H   0  0  0  0  0  0  0  0  0  0  0  0
   -5.0299   -1.6109    9.3588 H   0  0  0  0  0  0  0  0  0  0  0  0
   -1.0295    5.0688    4.0980 O   0  0  0  0  0  0  0  0  0  0  0  0
   -3.3934    4.2224    4.4462 O   0  0  0  0  0  0  0  0  0  0  0  0
   -3.4841    5.0796    5.5546 C   0  0  0  0  0  0  0  0  0  0  0  0
    4.2806    1.3469   11.6803 S   0  0  1  0  0  0  0  0  0  0  0  0
    4.3370    0.2723   12.6497 O   0  0  0  0  0  0  0  0  0  0  0  0
    5.2465    0.9251   10.3827 O   0  0  0  0  0  0  0  0  0  0  0  0
    5.3161   -0.4419   10.0692 C   0  0  0  0  0  0  0  0  0  0  0  0
   -5.7373   -3.6381   10.2607 O   0  0  0  0  0  0  0  0  0  0  0  0
   -3.6891   -5.0993   10.0000 O   0  0  0  0  0  0  0  0  0  0  0  0
   -3.8517   -5.0342    8.6078 C   0  0  0  0  0  0  0  0  0  0  0  0
   -5.0926    0.6465    8.1972 C   0  0  0  0  0  0  0  0  0  0  0  0
   -3.1037   -1.0570    5.4015 C   0  0  0  0  0  0  0  0  0  0  0  0
   -3.7111   -6.0393    8.2125 H   0  0  0  0  0  0  0  0  0  0  0  0
   -3.1158   -4.3550    8.1642 H   0  0  0  0  0  0  0  0  0  0  0  0
   -4.8622   -4.6868    8.3662 H   0  0  0  0  0  0  0  0  0  0  0  0
    6.2842   -0.6245    9.6048 H   0  0  0  0  0  0  0  0  0  0  0  0
    4.5146   -0.7213    9.3776 H   0  0  0  0  0  0  0  0  0  0  0  0
    5.2316   -1.0392   10.9832 H   0  0  0  0  0  0  0  0  0  0  0  0
   -3.3693   -2.0781    5.6723 H   0  0  0  0  0  0  0  0  0  0  0  0
   -2.5382   -1.0667    4.4644 H   0  0  0  0  0  0  0  0  0  0  0  0
   -4.0159   -0.4673    5.2690 H   0  0  0  0  0  0  0  0  0  0  0  0
   -5.2599    1.5824    7.6658 H   0  0  0  0  0  0  0  0  0  0  0  0
   -5.6290    0.6682    9.1505 H   0  0  0  0  0  0  0  0  0  0  0  0
   -5.4639   -0.1866    7.5929 H   0  0  0  0  0  0  0  0  0  0  0  0
   -4.4433    5.5924    5.4976 H   0  0  0  0  0  0  0  0  0  0  0  0
   -2.6750    5.8167    5.5232 H   0  0  0  0  0  0  0  0  0  0  0  0
   -3.4191    4.5123    6.4889 H   0  0  0  0  0  0  0  0  0  0  0  0
  1  2  2  0  0  0  0
  1  6  1  0  0  0  0
  1 27  1  0  0  0  0
  2  3  1  0  0  0  0
  2 23  1  0  0  0  0
  3  4  2  0  0  0  0
  3  7  1  0  0  0  0
  4  5  1  0  0  0  0
  4 10  1  0  0  0  0
  5  6  2  0  0  0  0
  5 26  1  0  0  0  0
  6 24  1  0  0  0  0
  7  8  2  0  0  0  0
  7 11  1  0  0  0  0
  8  9  1  0  0  0  0
  8 14  1  0  0  0  0
  9 10  1  0  0  0  0
  9 17  2  0  0  0  0
 11 12  2  0  0  0  0
 11 18  1  0  0  0  0
 12 13  1  0  0  0  0
 12 21  1  0  0  0  0
 13 14  2  0  0  0  0
 14 15  1  0  0  0  0
 15 16  2  0  0  0  0
 15 29  1  0  0  0  0
 16 17  1  0  0  0  0
 16 35  1  0  0  0  0
 17 28  1  0  0  0  0
 18 19  2  0  0  0  0
 18 22  1  0  0  0  0
 19 20  1  0  0  0  0
 19 31  1  0  0  0  0
 20 21  2  0  0  0  0
 20 25  1  0  0  0  0
 21 30  1  0  0  0  0
 22 42  1  0  0  0  0
 23 43  1  0  0  0  0
 24 32  2  1  0  0  0
 24 33  1  0  0  0  0
 25 39  2  6  0  0  0
 25 40  1  0  0  0  0
 33 34  1  0  0  0  0
 34 56  1  0  0  0  0
 34 57  1  0  0  0  0
 34 58  1  0  0  0  0
 35 36  2  1  0  0  0
 35 37  1  0  0  0  0
 37 38  1  0  0  0  0
 38 47  1  0  0  0  0
 38 48  1  0  0  0  0
 38 49  1  0  0  0  0
 40 41  1  0  0  0  0
 41 44  1  0  0  0  0
 41 45  1  0  0  0  0
 41 46  1  0  0  0  0
 42 53  1  0  0  0  0
 42 54  1  0  0  0  0
 42 55  1  0  0  0  0
 43 50  1  0  0  0  0
 43 51  1  0  0  0  0
 43 52  1  0  0  0  0
 59 60  2  0  0  0  0
 59 64  1  0  0  0  0
 59 85  1  0  0  0  0
 60 61  1  0  0  0  0
 60 81  1  0  0  0  0
 61 62  2  0  0  0  0
 61 65  1  0  0  0  0
 62 63  1  0  0  0  0
 62 68  1  0  0  0  0
 63 64  2  0  0  0  0
 63 84  1  0  0  0  0
 64 82  1  0  0  0  0
 65 66  2  0  0  0  0
 65 69  1  0  0  0  0
 66 67  1  0  0  0  0
 66 72  1  0  0  0  0
 67 68  1  0  0  0  0
 67 75  2  0  0  0  0
 69 70  2  0  0  0  0
 69 76  1  0  0  0  0
 70 71  1  0  0  0  0
 70 79  1  0  0  0  0
 71 72  2  0  0  0  0
 72 73  1  0  0  0  0
 73 74  2  0  0  0  0
 73 87  1  0  0  0  0
 74 75  1  0  0  0  0
 74 93  1  0  0  0  0
 75 86  1  0  0  0  0
 76 77  2  0  0  0  0
 76 80  1  0  0  0  0
 77 78  1  0  0  0  0
 77 89  1  0  0  0  0
 78 79  2  0  0  0  0
 78 83  1  0  0  0  0
 79 88  1  0  0  0  0
 80100  1  0  0  0  0
 81101  1  0  0  0  0
 82 90  2  1  0  0  0
 82 91  1  0  0  0  0
 83 97  2  6  0  0  0
 83 98  1  0  0  0  0
 91 92  1  0  0  0  0
 92114  1  0  0  0  0
 92115  1  0  0  0  0
 92116  1  0  0  0  0
 93 94  2  1  0  0  0
 93 95  1  0  0  0  0
 95 96  1  0  0  0  0
 96105  1  0  0  0  0
 96106  1  0  0  0  0
 96107  1  0  0  0  0
 98 99  1  0  0  0  0
 99102  1  0  0  0  0
 99103  1  0  0  0  0
 99104  1  0  0  0  0
100111  1  0  0  0  0
100112  1  0  0  0  0
100113  1  0  0  0  0
101108  1  0  0  0  0
101109  1  0  0  0  0
101110  1  0  0  0  0
M  END
