energy: -124.627455569363 gnorm: 0.000162118846 xtb: 6.7.1 (edcfbbe)_energy: -124.627455569363 gnorm: 0.000162118846 xtb: 6.7.1 (edcfbbe)
 OpenBabel02242515443D

192200  0  0  0  0  0  0  0  0999 V2000
   -0.0957    3.4427   -3.9155 C   0  0  0  0  0  0  0  0  0  0  0  0
    1.8182   -2.6624   -0.5761 C   0  0  0  0  0  0  0  0  0  0  0  0
   -4.3863    1.0907   -2.7586 C   0  0  0  0  0  0  0  0  0  0  0  0
   -3.3814    0.3141   -2.2153 C   0  0  0  0  0  0  0  0  0  0  0  0
   -2.0644    0.8234   -2.1190 C   0  0  0  0  0  0  0  0  0  0  0  0
   -1.7500    2.0000   -2.8337 C   0  0  0  0  0  0  0  0  0  0  0  0
   -2.7915    2.7748   -3.3409 C   0  0  0  0  0  0  0  0  0  0  0  0
   -4.1139    2.3580   -3.2699 C   0  0  0  0  0  0  0  0  0  0  0  0
   -1.0494    0.1850   -1.3481 C   0  0  0  0  0  0  0  0  0  0  0  0
    0.3000    0.4990   -1.6583 C   0  0  0  0  0  0  0  0  0  0  0  0
    0.6167    1.6275   -2.4410 C   0  0  0  0  0  0  0  0  0  0  0  0
   -0.4176    2.3749   -2.9936 N   0  0  0  0  0  0  0  0  0  0  0  0
   -1.2686   -0.6550   -0.2106 C   0  0  0  0  0  0  0  0  0  0  0  0
   -0.2416   -1.5506    0.1669 C   0  0  0  0  0  0  0  0  0  0  0  0
    0.9819   -1.4858   -0.4893 N   0  0  0  0  0  0  0  0  0  0  0  0
    1.3330   -0.3204   -1.1626 C   0  0  0  0  0  0  0  0  0  0  0  0
    2.6552    0.0520   -1.3539 C   0  0  0  0  0  0  0  0  0  0  0  0
    2.9801    1.2065   -2.0581 C   0  0  0  0  0  0  0  0  0  0  0  0
    1.9563    1.9718   -2.6040 C   0  0  0  0  0  0  0  0  0  0  0  0
   -2.4131   -0.6094    0.6093 C   0  0  0  0  0  0  0  0  0  0  0  0
   -2.6110   -1.5460    1.6098 C   0  0  0  0  0  0  0  0  0  0  0  0
   -1.6613   -2.5187    1.8876 C   0  0  0  0  0  0  0  0  0  0  0  0
   -0.4592   -2.4673    1.1863 C   0  0  0  0  0  0  0  0  0  0  0  0
   -3.3847    0.3747    0.4726 O   0  0  0  0  0  0  0  0  0  0  0  0
   -3.5425   -0.9819   -1.8218 O   0  0  0  0  0  0  0  0  0  0  0  0
   -5.3943    0.7121   -2.7813 H   0  0  0  0  0  0  0  0  0  0  0  0
   -2.5800    3.7335   -3.7748 H   0  0  0  0  0  0  0  0  0  0  0  0
   -3.5291   -1.4731    2.1685 H   0  0  0  0  0  0  0  0  0  0  0  0
    0.3274   -3.1521    1.4541 H   0  0  0  0  0  0  0  0  0  0  0  0
    3.4420   -0.5433   -0.9202 H   0  0  0  0  0  0  0  0  0  0  0  0
    2.2187    2.8622   -3.1421 H   0  0  0  0  0  0  0  0  0  0  0  0
    1.0968   -3.8104   -1.2929 C   0  0  0  0  0  0  0  0  0  0  0  0
    1.9769   -5.0507   -1.3700 C   0  0  0  0  0  0  0  0  0  0  0  0
    0.0530    4.7972   -3.2152 C   0  0  0  0  0  0  0  0  0  0  0  0
    0.3960    5.8999   -4.2078 C   0  0  0  0  0  0  0  0  0  0  0  0
   -2.9546    1.6690    0.8195 C   0  0  0  0  0  0  0  0  0  0  0  0
   -4.8433   -1.4671   -1.6244 C   0  0  0  0  0  0  0  0  0  0  0  0
   -5.2683    3.2159   -3.7653 C   0  0  0  0  0  0  0  0  0  0  0  0
   -5.9900    2.4880   -4.9088 C   0  0  0  0  0  0  0  0  0  0  0  0
   -6.2439    3.4511   -2.6031 C   0  0  0  0  0  0  0  0  0  0  0  0
   -4.8186    4.5839   -4.2871 C   0  0  0  0  0  0  0  0  0  0  0  0
   -1.8582   -3.5914    2.9469 C   0  0  0  0  0  0  0  0  0  0  0  0
   -1.6827   -4.9727    2.2990 C   0  0  0  0  0  0  0  0  0  0  0  0
   -3.2512   -3.5387    3.5794 C   0  0  0  0  0  0  0  0  0  0  0  0
   -0.8178   -3.4061    4.0607 C   0  0  0  0  0  0  0  0  0  0  0  0
    4.4457    1.5925   -2.1983 C   0  0  0  0  0  0  0  0  0  0  0  0
    4.6547    2.8727   -3.0127 C   0  0  0  0  0  0  0  0  0  0  0  0
    5.2024    0.4577   -2.9038 C   0  0  0  0  0  0  0  0  0  0  0  0
    5.0380    1.8205   -0.8000 C   0  0  0  0  0  0  0  0  0  0  0  0
    6.2475    0.7293   -3.0379 H   0  0  0  0  0  0  0  0  0  0  0  0
    4.7662    0.2672   -3.8823 H   0  0  0  0  0  0  0  0  0  0  0  0
    5.1636   -0.4631   -2.3287 H   0  0  0  0  0  0  0  0  0  0  0  0
    5.7193    3.0897   -3.0769 H   0  0  0  0  0  0  0  0  0  0  0  0
    4.1693    3.7232   -2.5394 H   0  0  0  0  0  0  0  0  0  0  0  0
    4.2752    2.7597   -4.0258 H   0  0  0  0  0  0  0  0  0  0  0  0
    6.0849    2.1074   -0.8767 H   0  0  0  0  0  0  0  0  0  0  0  0
    4.9744    0.9228   -0.1917 H   0  0  0  0  0  0  0  0  0  0  0  0
    4.4976    2.6149   -0.2896 H   0  0  0  0  0  0  0  0  0  0  0  0
   -0.9591   -4.1566    4.8361 H   0  0  0  0  0  0  0  0  0  0  0  0
   -0.9209   -2.4206    4.5098 H   0  0  0  0  0  0  0  0  0  0  0  0
    0.1942   -3.4997    3.6765 H   0  0  0  0  0  0  0  0  0  0  0  0
   -3.3569   -4.3503    4.2971 H   0  0  0  0  0  0  0  0  0  0  0  0
   -4.0248   -3.6515    2.8237 H   0  0  0  0  0  0  0  0  0  0  0  0
   -3.4052   -2.6015    4.1085 H   0  0  0  0  0  0  0  0  0  0  0  0
   -5.6905    5.1568   -4.5975 H   0  0  0  0  0  0  0  0  0  0  0  0
   -4.1643    4.4796   -5.1497 H   0  0  0  0  0  0  0  0  0  0  0  0
   -4.3048    5.1491   -3.5129 H   0  0  0  0  0  0  0  0  0  0  0  0
   -7.0833    4.0605   -2.9323 H   0  0  0  0  0  0  0  0  0  0  0  0
   -5.7386    3.9683   -1.7899 H   0  0  0  0  0  0  0  0  0  0  0  0
   -6.6332    2.5132   -2.2179 H   0  0  0  0  0  0  0  0  0  0  0  0
   -6.8032    3.1018   -5.2913 H   0  0  0  0  0  0  0  0  0  0  0  0
   -6.4069    1.5420   -4.5758 H   0  0  0  0  0  0  0  0  0  0  0  0
   -5.2961    2.2865   -5.7224 H   0  0  0  0  0  0  0  0  0  0  0  0
   -1.8513   -5.7573    3.0340 H   0  0  0  0  0  0  0  0  0  0  0  0
   -0.6823   -5.0975    1.8940 H   0  0  0  0  0  0  0  0  0  0  0  0
   -2.3970   -5.0990    1.4882 H   0  0  0  0  0  0  0  0  0  0  0  0
    2.1461   -2.9845    0.4193 H   0  0  0  0  0  0  0  0  0  0  0  0
    2.7081   -2.4108   -1.1523 H   0  0  0  0  0  0  0  0  0  0  0  0
    0.8317   -3.4787   -2.2989 H   0  0  0  0  0  0  0  0  0  0  0  0
    0.1696   -4.0463   -0.7692 H   0  0  0  0  0  0  0  0  0  0  0  0
    2.8974   -4.8371   -1.9094 H   0  0  0  0  0  0  0  0  0  0  0  0
    1.4564   -5.8540   -1.8852 H   0  0  0  0  0  0  0  0  0  0  0  0
    2.2385   -5.3977   -0.3723 H   0  0  0  0  0  0  0  0  0  0  0  0
   -3.7808    2.3384    0.5830 H   0  0  0  0  0  0  0  0  0  0  0  0
   -2.0705    1.9766    0.2529 H   0  0  0  0  0  0  0  0  0  0  0  0
   -2.7276    1.7313    1.8915 H   0  0  0  0  0  0  0  0  0  0  0  0
   -4.7240   -2.4571   -1.1859 H   0  0  0  0  0  0  0  0  0  0  0  0
   -5.3930   -1.5567   -2.5691 H   0  0  0  0  0  0  0  0  0  0  0  0
   -5.4003   -0.8303   -0.9310 H   0  0  0  0  0  0  0  0  0  0  0  0
   -0.8749    3.5003   -4.6784 H   0  0  0  0  0  0  0  0  0  0  0  0
    0.8289    3.1925   -4.4414 H   0  0  0  0  0  0  0  0  0  0  0  0
    0.8349    4.7232   -2.4568 H   0  0  0  0  0  0  0  0  0  0  0  0
   -0.8791    5.0376   -2.7003 H   0  0  0  0  0  0  0  0  0  0  0  0
    1.3334    5.6809   -4.7151 H   0  0  0  0  0  0  0  0  0  0  0  0
    0.4976    6.8546   -3.6980 H   0  0  0  0  0  0  0  0  0  0  0  0
   -0.3845    5.9944   -4.9600 H   0  0  0  0  0  0  0  0  0  0  0  0
   -0.0957    3.4427    2.0845 C   0  0  0  0  0  0  0  0  0  0  0  0
    1.8182   -2.6624    5.4239 C   0  0  0  0  0  0  0  0  0  0  0  0
   -4.3863    1.0907    3.2414 C   0  0  0  0  0  0  0  0  0  0  0  0
   -3.3814    0.3141    3.7847 C   0  0  0  0  0  0  0  0  0  0  0  0
   -2.0644    0.8234    3.8810 C   0  0  0  0  0  0  0  0  0  0  0  0
   -1.7500    2.0000    3.1663 C   0  0  0  0  0  0  0  0  0  0  0  0
   -2.7915    2.7748    2.6591 C   0  0  0  0  0  0  0  0  0  0  0  0
   -4.1139    2.3580    2.7301 C   0  0  0  0  0  0  0  0  0  0  0  0
   -1.0494    0.1850    4.6519 C   0  0  0  0  0  0  0  0  0  0  0  0
    0.3000    0.4990    4.3417 C   0  0  0  0  0  0  0  0  0  0  0  0
    0.6167    1.6275    3.5590 C   0  0  0  0  0  0  0  0  0  0  0  0
   -0.4176    2.3749    3.0064 N   0  0  0  0  0  0  0  0  0  0  0  0
   -1.2686   -0.6550    5.7894 C   0  0  0  0  0  0  0  0  0  0  0  0
   -0.2416   -1.5506    6.1669 C   0  0  0  0  0  0  0  0  0  0  0  0
    0.9819   -1.4858    5.5107 N   0  0  0  0  0  0  0  0  0  0  0  0
    1.3330   -0.3204    4.8374 C   0  0  0  0  0  0  0  0  0  0  0  0
    2.6552    0.0520    4.6461 C   0  0  0  0  0  0  0  0  0  0  0  0
    2.9801    1.2065    3.9419 C   0  0  0  0  0  0  0  0  0  0  0  0
    1.9563    1.9718    3.3960 C   0  0  0  0  0  0  0  0  0  0  0  0
   -2.4131   -0.6094    6.6093 C   0  0  0  0  0  0  0  0  0  0  0  0
   -2.6110   -1.5460    7.6098 C   0  0  0  0  0  0  0  0  0  0  0  0
   -1.6613   -2.5187    7.8876 C   0  0  0  0  0  0  0  0  0  0  0  0
   -0.4592   -2.4673    7.1863 C   0  0  0  0  0  0  0  0  0  0  0  0
   -3.3847    0.3747    6.4726 O   0  0  0  0  0  0  0  0  0  0  0  0
   -3.5425   -0.9819    4.1782 O   0  0  0  0  0  0  0  0  0  0  0  0
   -5.3943    0.7121    3.2187 H   0  0  0  0  0  0  0  0  0  0  0  0
   -2.5800    3.7335    2.2252 H   0  0  0  0  0  0  0  0  0  0  0  0
   -3.5291   -1.4731    8.1685 H   0  0  0  0  0  0  0  0  0  0  0  0
    0.3274   -3.1521    7.4541 H   0  0  0  0  0  0  0  0  0  0  0  0
    3.4420   -0.5433    5.0798 H   0  0  0  0  0  0  0  0  0  0  0  0
    2.2187    2.8622    2.8579 H   0  0  0  0  0  0  0  0  0  0  0  0
    1.0968   -3.8104    4.7071 C   0  0  0  0  0  0  0  0  0  0  0  0
    1.9769   -5.0507    4.6300 C   0  0  0  0  0  0  0  0  0  0  0  0
    0.0530    4.7972    2.7848 C   0  0  0  0  0  0  0  0  0  0  0  0
    0.3960    5.8999    1.7922 C   0  0  0  0  0  0  0  0  0  0  0  0
   -2.9546    1.6690    6.8195 C   0  0  0  0  0  0  0  0  0  0  0  0
   -4.8433   -1.4671    4.3756 C   0  0  0  0  0  0  0  0  0  0  0  0
   -5.2683    3.2159    2.2347 C   0  0  0  0  0  0  0  0  0  0  0  0
   -5.9900    2.4880    1.0912 C   0  0  0  0  0  0  0  0  0  0  0  0
   -6.2439    3.4511    3.3969 C   0  0  0  0  0  0  0  0  0  0  0  0
   -4.8186    4.5839    1.7129 C   0  0  0  0  0  0  0  0  0  0  0  0
   -1.8582   -3.5914    8.9469 C   0  0  0  0  0  0  0  0  0  0  0  0
   -1.6827   -4.9727    8.2990 C   0  0  0  0  0  0  0  0  0  0  0  0
   -3.2512   -3.5387    9.5794 C   0  0  0  0  0  0  0  0  0  0  0  0
   -0.8178   -3.4061   10.0607 C   0  0  0  0  0  0  0  0  0  0  0  0
    4.4457    1.5925    3.8017 C   0  0  0  0  0  0  0  0  0  0  0  0
    4.6547    2.8727    2.9873 C   0  0  0  0  0  0  0  0  0  0  0  0
    5.2024    0.4577    3.0962 C   0  0  0  0  0  0  0  0  0  0  0  0
    5.0380    1.8205    5.2000 C   0  0  0  0  0  0  0  0  0  0  0  0
    6.2475    0.7293    2.9621 H   0  0  0  0  0  0  0  0  0  0  0  0
    4.7662    0.2672    2.1177 H   0  0  0  0  0  0  0  0  0  0  0  0
    5.1636   -0.4631    3.6713 H   0  0  0  0  0  0  0  0  0  0  0  0
    5.7193    3.0897    2.9231 H   0  0  0  0  0  0  0  0  0  0  0  0
    4.1693    3.7232    3.4606 H   0  0  0  0  0  0  0  0  0  0  0  0
    4.2752    2.7597    1.9742 H   0  0  0  0  0  0  0  0  0  0  0  0
    6.0849    2.1074    5.1233 H   0  0  0  0  0  0  0  0  0  0  0  0
    4.9744    0.9228    5.8083 H   0  0  0  0  0  0  0  0  0  0  0  0
    4.4976    2.6149    5.7104 H   0  0  0  0  0  0  0  0  0  0  0  0
   -0.9591   -4.1566   10.8361 H   0  0  0  0  0  0  0  0  0  0  0  0
   -0.9209   -2.4206   10.5098 H   0  0  0  0  0  0  0  0  0  0  0  0
    0.1942   -3.4997    9.6765 H   0  0  0  0  0  0  0  0  0  0  0  0
   -3.3569   -4.3503   10.2971 H   0  0  0  0  0  0  0  0  0  0  0  0
   -4.0248   -3.6515    8.8237 H   0  0  0  0  0  0  0  0  0  0  0  0
   -3.4052   -2.6015   10.1085 H   0  0  0  0  0  0  0  0  0  0  0  0
   -5.6905    5.1568    1.4025 H   0  0  0  0  0  0  0  0  0  0  0  0
   -4.1643    4.4796    0.8503 H   0  0  0  0  0  0  0  0  0  0  0  0
   -4.3048    5.1491    2.4871 H   0  0  0  0  0  0  0  0  0  0  0  0
   -7.0833    4.0605    3.0677 H   0  0  0  0  0  0  0  0  0  0  0  0
   -5.7386    3.9683    4.2101 H   0  0  0  0  0  0  0  0  0  0  0  0
   -6.6332    2.5132    3.7821 H   0  0  0  0  0  0  0  0  0  0  0  0
   -6.8032    3.1018    0.7087 H   0  0  0  0  0  0  0  0  0  0  0  0
   -6.4069    1.5420    1.4242 H   0  0  0  0  0  0  0  0  0  0  0  0
   -5.2961    2.2865    0.2776 H   0  0  0  0  0  0  0  0  0  0  0  0
   -1.8513   -5.7573    9.0340 H   0  0  0  0  0  0  0  0  0  0  0  0
   -0.6823   -5.0975    7.8940 H   0  0  0  0  0  0  0  0  0  0  0  0
   -2.3970   -5.0990    7.4882 H   0  0  0  0  0  0  0  0  0  0  0  0
    2.1461   -2.9845    6.4193 H   0  0  0  0  0  0  0  0  0  0  0  0
    2.7081   -2.4108    4.8477 H   0  0  0  0  0  0  0  0  0  0  0  0
    0.8317   -3.4787    3.7011 H   0  0  0  0  0  0  0  0  0  0  0  0
    0.1696   -4.0463    5.2308 H   0  0  0  0  0  0  0  0  0  0  0  0
    2.8974   -4.8371    4.0906 H   0  0  0  0  0  0  0  0  0  0  0  0
    1.4564   -5.8540    4.1148 H   0  0  0  0  0  0  0  0  0  0  0  0
    2.2385   -5.3977    5.6277 H   0  0  0  0  0  0  0  0  0  0  0  0
   -3.7808    2.3384    6.5830 H   0  0  0  0  0  0  0  0  0  0  0  0
   -2.0705    1.9766    6.2529 H   0  0  0  0  0  0  0  0  0  0  0  0
   -2.7276    1.7313    7.8915 H   0  0  0  0  0  0  0  0  0  0  0  0
   -4.7240   -2.4571    4.8141 H   0  0  0  0  0  0  0  0  0  0  0  0
   -5.3930   -1.5567    3.4309 H   0  0  0  0  0  0  0  0  0  0  0  0
   -5.4003   -0.8303    5.0690 H   0  0  0  0  0  0  0  0  0  0  0  0
   -0.8749    3.5003    1.3216 H   0  0  0  0  0  0  0  0  0  0  0  0
    0.8289    3.1925    1.5586 H   0  0  0  0  0  0  0  0  0  0  0  0
    0.8349    4.7232    3.5432 H   0  0  0  0  0  0  0  0  0  0  0  0
   -0.8791    5.0376    3.2997 H   0  0  0  0  0  0  0  0  0  0  0  0
    1.3334    5.6809    1.2849 H   0  0  0  0  0  0  0  0  0  0  0  0
    0.4976    6.8546    2.3020 H   0  0  0  0  0  0  0  0  0  0  0  0
   -0.3845    5.9944    1.0400 H   0  0  0  0  0  0  0  0  0  0  0  0
  1 34  1  0  0  0  0
  1 90  1  0  0  0  0
  1 91  1  0  0  0  0
  2 32  1  0  0  0  0
  2 77  1  0  0  0  0
  2 78  1  0  0  0  0
  3  4  2  0  0  0  0
  3 26  1  0  0  0  0
  4  5  1  0  0  0  0
  4 25  1  0  0  0  0
  5  6  2  0  0  0  0
  5  9  1  0  0  0  0
  6  7  1  0  0  0  0
  7  8  2  0  0  0  0
  7 27  1  0  0  0  0
  8 38  1  0  0  0  0
  8  3  1  0  0  0  0
  9 10  1  0  0  0  0
 10 11  2  0  0  0  0
 11 12  1  0  0  0  0
 12  1  1  0  0  0  0
 12  6  1  0  0  0  0
 13 14  2  0  0  0  0
 13 20  1  0  0  0  0
 13  9  1  0  0  0  0
 14 15  1  0  0  0  0
 15  2  1  0  0  0  0
 15 16  1  0  0  0  0
 16 10  1  0  0  0  0
 16 17  2  0  0  0  0
 17 18  1  0  0  0  0
 17 30  1  0  0  0  0
 18 46  1  0  0  0  0
 18 19  2  0  0  0  0
 19 11  1  0  0  0  0
 19 31  1  0  0  0  0
 20 21  2  0  0  0  0
 21 22  1  0  0  0  0
 21 28  1  0  0  0  0
 22 42  1  0  0  0  0
 22 23  2  0  0  0  0
 23 14  1  0  0  0  0
 23 29  1  0  0  0  0
 24 36  1  0  0  0  0
 24 20  1  0  0  0  0
 25 37  1  0  0  0  0
 32 33  1  0  0  0  0
 32 79  1  0  0  0  0
 32 80  1  0  0  0  0
 33 81  1  0  0  0  0
 33 82  1  0  0  0  0
 33 83  1  0  0  0  0
 34 35  1  0  0  0  0
 34 92  1  0  0  0  0
 34 93  1  0  0  0  0
 35 94  1  0  0  0  0
 35 95  1  0  0  0  0
 35 96  1  0  0  0  0
 36 84  1  0  0  0  0
 36 85  1  0  0  0  0
 36 86  1  0  0  0  0
 37 87  1  0  0  0  0
 37 88  1  0  0  0  0
 37 89  1  0  0  0  0
 38 39  1  0  0  0  0
 38 40  1  0  0  0  0
 38 41  1  0  0  0  0
 39 71  1  0  0  0  0
 39 72  1  0  0  0  0
 39 73  1  0  0  0  0
 40 68  1  0  0  0  0
 40 69  1  0  0  0  0
 40 70  1  0  0  0  0
 41 65  1  0  0  0  0
 41 66  1  0  0  0  0
 41 67  1  0  0  0  0
 42 43  1  0  0  0  0
 42 44  1  0  0  0  0
 42 45  1  0  0  0  0
 43 74  1  0  0  0  0
 43 75  1  0  0  0  0
 43 76  1  0  0  0  0
 44 62  1  0  0  0  0
 44 63  1  0  0  0  0
 44 64  1  0  0  0  0
 45 59  1  0  0  0  0
 45 60  1  0  0  0  0
 45 61  1  0  0  0  0
 46 47  1  0  0  0  0
 46 48  1  0  0  0  0
 46 49  1  0  0  0  0
 47 53  1  0  0  0  0
 47 54  1  0  0  0  0
 47 55  1  0  0  0  0
 48 50  1  0  0  0  0
 48 51  1  0  0  0  0
 48 52  1  0  0  0  0
 49 56  1  0  0  0  0
 49 57  1  0  0  0  0
 49 58  1  0  0  0  0
 97130  1  0  0  0  0
 97186  1  0  0  0  0
 97187  1  0  0  0  0
 98128  1  0  0  0  0
 98173  1  0  0  0  0
 98174  1  0  0  0  0
 99100  2  0  0  0  0
 99122  1  0  0  0  0
100101  1  0  0  0  0
100121  1  0  0  0  0
101102  2  0  0  0  0
101105  1  0  0  0  0
102103  1  0  0  0  0
103104  2  0  0  0  0
103123  1  0  0  0  0
104134  1  0  0  0  0
104 99  1  0  0  0  0
105106  1  0  0  0  0
106107  2  0  0  0  0
107108  1  0  0  0  0
108 97  1  0  0  0  0
108102  1  0  0  0  0
109110  2  0  0  0  0
109116  1  0  0  0  0
109105  1  0  0  0  0
110111  1  0  0  0  0
111 98  1  0  0  0  0
111112  1  0  0  0  0
112106  1  0  0  0  0
112113  2  0  0  0  0
113114  1  0  0  0  0
113126  1  0  0  0  0
114142  1  0  0  0  0
114115  2  0  0  0  0
115107  1  0  0  0  0
115127  1  0  0  0  0
116117  2  0  0  0  0
117118  1  0  0  0  0
117124  1  0  0  0  0
118138  1  0  0  0  0
118119  2  0  0  0  0
119110  1  0  0  0  0
119125  1  0  0  0  0
120132  1  0  0  0  0
120116  1  0  0  0  0
121133  1  0  0  0  0
128129  1  0  0  0  0
128175  1  0  0  0  0
128176  1  0  0  0  0
129177  1  0  0  0  0
129178  1  0  0  0  0
129179  1  0  0  0  0
130131  1  0  0  0  0
130188  1  0  0  0  0
130189  1  0  0  0  0
131190  1  0  0  0  0
131191  1  0  0  0  0
131192  1  0  0  0  0
132180  1  0  0  0  0
132181  1  0  0  0  0
132182  1  0  0  0  0
133183  1  0  0  0  0
133184  1  0  0  0  0
133185  1  0  0  0  0
134135  1  0  0  0  0
134136  1  0  0  0  0
134137  1  0  0  0  0
135167  1  0  0  0  0
135168  1  0  0  0  0
135169  1  0  0  0  0
136164  1  0  0  0  0
136165  1  0  0  0  0
136166  1  0  0  0  0
137161  1  0  0  0  0
137162  1  0  0  0  0
137163  1  0  0  0  0
138139  1  0  0  0  0
138140  1  0  0  0  0
138141  1  0  0  0  0
139170  1  0  0  0  0
139171  1  0  0  0  0
139172  1  0  0  0  0
140158  1  0  0  0  0
140159  1  0  0  0  0
140160  1  0  0  0  0
141155  1  0  0  0  0
141156  1  0  0  0  0
141157  1  0  0  0  0
142143  1  0  0  0  0
142144  1  0  0  0  0
142145  1  0  0  0  0
143149  1  0  0  0  0
143150  1  0  0  0  0
143151  1  0  0  0  0
144146  1  0  0  0  0
144147  1  0  0  0  0
144148  1  0  0  0  0
145152  1  0  0  0  0
145153  1  0  0  0  0
145154  1  0  0  0  0
M  END
