 energy: -93.968166208068 gnorm: 0.000117167222 xtb: 6.7.1 (edcfbbe)
          03102510553D

 68 73  0     0  0            999 V2000
   -1.2340    1.8101   -0.0296 C   0  0  0  0  0  0  0  0  0  0  0  0
   -1.2542    0.4305   -0.0382 C   0  0  0  0  0  0  0  0  0  0  0  0
   -0.0513   -0.2739   -0.0496 C   0  0  0  0  0  0  0  0  0  0  0  0
    1.2067    0.3808   -0.0504 C   0  0  0  0  0  0  0  0  0  0  0  0
    1.1819    1.7890   -0.0418 C   0  0  0  0  0  0  0  0  0  0  0  0
   -0.0079    2.4966   -0.0337 C   0  0  0  0  0  0  0  0  0  0  0  0
   -0.0723   -1.6821   -0.0663 C   0  0  0  0  0  0  0  0  0  0  0  0
    1.1442   -2.3868   -0.0840 C   0  0  0  0  0  0  0  0  0  0  0  0
    2.3510   -1.6446   -0.0798 C   0  0  0  0  0  0  0  0  0  0  0  0
    2.3780   -0.2925   -0.0626 N   0  0  0  0  0  0  0  0  0  0  0  0
   -1.3057   -2.3515   -0.0744 C   0  0  0  0  0  0  0  0  0  0  0  0
   -1.3372   -3.7590   -0.0997 C   0  0  0  0  0  0  0  0  0  0  0  0
   -0.1192   -4.4256   -0.1126 N   0  0  0  0  0  0  0  0  0  0  0  0
    1.1267   -3.7857   -0.1084 C   0  0  0  0  0  0  0  0  0  0  0  0
    2.3241   -4.4735   -0.1284 C   0  0  0  0  0  0  0  0  0  0  0  0
    3.5439   -3.7736   -0.1219 C   0  0  0  0  0  0  0  0  0  0  0  0
    3.5468   -2.3900   -0.0977 C   0  0  0  0  0  0  0  0  0  0  0  0
   -2.4978   -1.6153   -0.0610 C   0  0  0  0  0  0  0  0  0  0  0  0
   -3.7121   -2.2779   -0.0724 C   0  0  0  0  0  0  0  0  0  0  0  0
   -3.7623   -3.6740   -0.0979 C   0  0  0  0  0  0  0  0  0  0  0  0
   -2.5580   -4.4017   -0.1115 C   0  0  0  0  0  0  0  0  0  0  0  0
   -0.0497    4.0212   -0.0342 C   0  0  0  0  0  0  0  0  0  0  0  0
   -5.0759   -4.4415   -0.1168 C   0  0  0  0  0  0  0  0  0  0  0  0
    4.8320   -4.5903   -0.1464 C   0  0  0  0  0  0  0  0  0  0  0  0
   -6.3015   -3.5236   -0.0935 C   0  0  0  0  0  0  0  0  0  0  0  0
   -5.1518   -5.2931   -1.3939 C   0  0  0  0  0  0  0  0  0  0  0  0
   -5.1538   -5.3583    1.1140 C   0  0  0  0  0  0  0  0  0  0  0  0
    4.8726   -5.4382   -1.4265 C   0  0  0  0  0  0  0  0  0  0  0  0
    6.0912   -3.7192   -0.1230 C   0  0  0  0  0  0  0  0  0  0  0  0
    4.8781   -5.5110    1.0823 C   0  0  0  0  0  0  0  0  0  0  0  0
   -0.7787    4.5118    1.2252 C   0  0  0  0  0  0  0  0  0  0  0  0
   -0.7983    4.5073   -1.2841 C   0  0  0  0  0  0  0  0  0  0  0  0
    1.3436    4.6566   -0.0469 C   0  0  0  0  0  0  0  0  0  0  0  0
    2.1372    2.2872   -0.0442 H   0  0  0  0  0  0  0  0  0  0  0  0
   -2.1751    2.3391   -0.0215 H   0  0  0  0  0  0  0  0  0  0  0  0
    4.4648   -1.8262   -0.0931 H   0  0  0  0  0  0  0  0  0  0  0  0
    2.3072   -5.5559   -0.1496 H   0  0  0  0  0  0  0  0  0  0  0  0
   -2.5762   -5.4838   -0.1324 H   0  0  0  0  0  0  0  0  0  0  0  0
   -4.6084   -1.6802   -0.0616 H   0  0  0  0  0  0  0  0  0  0  0  0
    1.9102    4.3646    0.8337 H   0  0  0  0  0  0  0  0  0  0  0  0
    1.8960    4.3590   -0.9346 H   0  0  0  0  0  0  0  0  0  0  0  0
    1.2521    5.7433   -0.0495 H   0  0  0  0  0  0  0  0  0  0  0  0
   -1.8170    4.1306   -1.3016 H   0  0  0  0  0  0  0  0  0  0  0  0
   -0.8337    5.5968   -1.3107 H   0  0  0  0  0  0  0  0  0  0  0  0
   -0.2914    4.1537   -2.1797 H   0  0  0  0  0  0  0  0  0  0  0  0
   -1.7950    4.1300    1.2629 H   0  0  0  0  0  0  0  0  0  0  0  0
   -0.8192    5.6013    1.2449 H   0  0  0  0  0  0  0  0  0  0  0  0
   -0.2545    4.1673    2.1144 H   0  0  0  0  0  0  0  0  0  0  0  0
    4.0292   -6.1219   -1.4718 H   0  0  0  0  0  0  0  0  0  0  0  0
    5.7914   -6.0236   -1.4703 H   0  0  0  0  0  0  0  0  0  0  0  0
    4.8305   -4.7910   -2.3002 H   0  0  0  0  0  0  0  0  0  0  0  0
    4.0397   -6.2021    1.0881 H   0  0  0  0  0  0  0  0  0  0  0  0
    5.8007   -6.0921    1.0916 H   0  0  0  0  0  0  0  0  0  0  0  0
    4.8325   -4.9161    1.9922 H   0  0  0  0  0  0  0  0  0  0  0  0
    6.9780   -4.3537   -0.1395 H   0  0  0  0  0  0  0  0  0  0  0  0
    6.1247   -3.0645   -0.9901 H   0  0  0  0  0  0  0  0  0  0  0  0
    6.1235   -3.1111    0.7776 H   0  0  0  0  0  0  0  0  0  0  0  0
   -5.0912   -4.7644    2.0235 H   0  0  0  0  0  0  0  0  0  0  0  0
   -4.3369   -6.0744    1.1214 H   0  0  0  0  0  0  0  0  0  0  0  0
   -6.0938   -5.9101    1.1219 H   0  0  0  0  0  0  0  0  0  0  0  0
   -5.0853   -4.6528   -2.2710 H   0  0  0  0  0  0  0  0  0  0  0  0
   -4.3357   -6.0090   -1.4359 H   0  0  0  0  0  0  0  0  0  0  0  0
   -6.0926   -5.8422   -1.4335 H   0  0  0  0  0  0  0  0  0  0  0  0
   -6.3137   -2.8715   -0.9633 H   0  0  0  0  0  0  0  0  0  0  0  0
   -6.3109   -2.9130    0.8061 H   0  0  0  0  0  0  0  0  0  0  0  0
   -7.2109   -4.1246   -0.1063 H   0  0  0  0  0  0  0  0  0  0  0  0
   -2.4845   -0.2304   -0.0379 O   0  0  0  0  0  0  0  0  0  0  0  0
   -0.1306   -5.4336   -0.1331 H   0  0  0  0  0  0  0  0  0  0  0  0
  1  2  2  0  0  0  0
  1 35  1  0  0  0  0
  2  3  1  0  0  0  0
  3  7  2  0  0  0  0
  4  5  1  0  0  0  0
  5  6  2  0  0  0  0
  5 34  1  0  0  0  0
  6  1  1  0  0  0  0
  6 22  1  0  0  0  0
  8  9  1  0  0  0  0
 10  4  2  0  0  0  0
 11 12  2  0  0  0  0
 11 18  1  0  0  0  0
 13 14  1  0  0  0  0
 14  8  2  0  0  0  0
 15 16  2  0  0  0  0
 15 37  1  0  0  0  0
 16 24  1  0  0  0  0
 17  9  2  0  0  0  0
 17 36  1  0  0  0  0
 18 19  2  0  0  0  0
 19 20  1  0  0  0  0
 19 39  1  0  0  0  0
 20 21  2  0  0  0  0
 20 23  1  0  0  0  0
 21 12  1  0  0  0  0
 21 38  1  0  0  0  0
 22 31  1  0  0  0  0
 22 32  1  0  0  0  0
 22 33  1  0  0  0  0
 23 25  1  0  0  0  0
 23 26  1  0  0  0  0
 23 27  1  0  0  0  0
 24 28  1  0  0  0  0
 24 29  1  0  0  0  0
 24 30  1  0  0  0  0
 25 64  1  0  0  0  0
 25 65  1  0  0  0  0
 25 66  1  0  0  0  0
 26 61  1  0  0  0  0
 26 62  1  0  0  0  0
 26 63  1  0  0  0  0
 27 58  1  0  0  0  0
 27 59  1  0  0  0  0
 27 60  1  0  0  0  0
 28 49  1  0  0  0  0
 28 50  1  0  0  0  0
 28 51  1  0  0  0  0
 29 55  1  0  0  0  0
 29 56  1  0  0  0  0
 29 57  1  0  0  0  0
 30 52  1  0  0  0  0
 30 53  1  0  0  0  0
 30 54  1  0  0  0  0
 31 46  1  0  0  0  0
 31 47  1  0  0  0  0
 31 48  1  0  0  0  0
 32 43  1  0  0  0  0
 32 44  1  0  0  0  0
 32 45  1  0  0  0  0
 33 40  1  0  0  0  0
 33 41  1  0  0  0  0
 33 42  1  0  0  0  0
 18 67  1  0  0  0  0
 67  2  1  0  0  0  0
 12 13  1  0  0  0  0
 10  9  1  0  0  0  0
 17 16  1  0  0  0  0
 14 15  1  0  0  0  0
  3  4  1  0  0  0  0
 11  7  1  0  0  0  0
  7  8  1  0  0  0  0
 13 68  1  0  0  0  0
M  CHG  1   1  -1
M  END
