 energy: -93.360484278539 gnorm: 0.000098785495 xtb: 6.7.1 (edcfbbe)
          03102510553D

 68 73  0     0  0            999 V2000
   -1.2371    1.8016   -0.0550 C   0  0  0  0  0  0  0  0  0  0  0  0
   -1.2756    0.4136   -0.0713 C   0  0  0  0  0  0  0  0  0  0  0  0
   -0.0623   -0.2873   -0.0791 C   0  0  0  0  0  0  0  0  0  0  0  0
    1.1983    0.3755   -0.0708 C   0  0  0  0  0  0  0  0  0  0  0  0
    1.1831    1.7850   -0.0534 C   0  0  0  0  0  0  0  0  0  0  0  0
   -0.0127    2.4914   -0.0452 C   0  0  0  0  0  0  0  0  0  0  0  0
   -0.0783   -1.6855   -0.0952 C   0  0  0  0  0  0  0  0  0  0  0  0
    1.1227   -2.3909   -0.1033 C   0  0  0  0  0  0  0  0  0  0  0  0
    2.3383   -1.6481   -0.0946 C   0  0  0  0  0  0  0  0  0  0  0  0
    2.3466   -0.3110   -0.0787 N   0  0  0  0  0  0  0  0  0  0  0  0
   -1.3092   -2.3584   -0.1027 C   0  0  0  0  0  0  0  0  0  0  0  0
   -1.3274   -3.7703   -0.1188 C   0  0  0  0  0  0  0  0  0  0  0  0
   -0.1163   -4.4253   -0.1271 N   0  0  0  0  0  0  0  0  0  0  0  0
    1.0994   -3.7980   -0.1200 C   0  0  0  0  0  0  0  0  0  0  0  0
    2.3215   -4.4722   -0.1287 C   0  0  0  0  0  0  0  0  0  0  0  0
    3.5372   -3.7762   -0.1209 C   0  0  0  0  0  0  0  0  0  0  0  0
    3.5408   -2.3840   -0.1038 C   0  0  0  0  0  0  0  0  0  0  0  0
   -2.4997   -1.6076   -0.0936 C   0  0  0  0  0  0  0  0  0  0  0  0
   -3.7093   -2.2785   -0.0992 C   0  0  0  0  0  0  0  0  0  0  0  0
   -3.7468   -3.6770   -0.1144 C   0  0  0  0  0  0  0  0  0  0  0  0
   -2.5571   -4.4092   -0.1251 C   0  0  0  0  0  0  0  0  0  0  0  0
   -0.0492    4.0098   -0.0232 C   0  0  0  0  0  0  0  0  0  0  0  0
   -5.0633   -4.4335   -0.1218 C   0  0  0  0  0  0  0  0  0  0  0  0
    4.8271   -4.5795   -0.1340 C   0  0  0  0  0  0  0  0  0  0  0  0
   -6.2816   -3.5078   -0.0937 C   0  0  0  0  0  0  0  0  0  0  0  0
   -5.1363   -5.2847   -1.3989 C   0  0  0  0  0  0  0  0  0  0  0  0
   -5.1225   -5.3408    1.1168 C   0  0  0  0  0  0  0  0  0  0  0  0
    4.8642   -5.4345   -1.4099 C   0  0  0  0  0  0  0  0  0  0  0  0
    6.0735   -3.6920   -0.1153 C   0  0  0  0  0  0  0  0  0  0  0  0
    4.8626   -5.4845    1.1068 C   0  0  0  0  0  0  0  0  0  0  0  0
   -0.7894    4.4674    1.2426 C   0  0  0  0  0  0  0  0  0  0  0  0
   -0.7907    4.5065   -1.2734 C   0  0  0  0  0  0  0  0  0  0  0  0
    1.3485    4.6327   -0.0144 C   0  0  0  0  0  0  0  0  0  0  0  0
    2.1356    2.2852   -0.0466 H   0  0  0  0  0  0  0  0  0  0  0  0
   -2.1721    2.3370   -0.0494 H   0  0  0  0  0  0  0  0  0  0  0  0
    4.4582   -1.8221   -0.0973 H   0  0  0  0  0  0  0  0  0  0  0  0
    2.3185   -5.5509   -0.1420 H   0  0  0  0  0  0  0  0  0  0  0  0
   -2.5863   -5.4868   -0.1379 H   0  0  0  0  0  0  0  0  0  0  0  0
   -4.6131   -1.6960   -0.0915 H   0  0  0  0  0  0  0  0  0  0  0  0
    1.9083    4.3352    0.8688 H   0  0  0  0  0  0  0  0  0  0  0  0
    1.9080    4.3608   -0.9060 H   0  0  0  0  0  0  0  0  0  0  0  0
    1.2558    5.7155    0.0012 H   0  0  0  0  0  0  0  0  0  0  0  0
   -1.8191    4.1586   -1.3002 H   0  0  0  0  0  0  0  0  0  0  0  0
   -0.8029    5.5930   -1.2820 H   0  0  0  0  0  0  0  0  0  0  0  0
   -0.2869    4.1628   -2.1739 H   0  0  0  0  0  0  0  0  0  0  0  0
   -1.8190    4.1222    1.2574 H   0  0  0  0  0  0  0  0  0  0  0  0
   -0.7979    5.5530    1.2877 H   0  0  0  0  0  0  0  0  0  0  0  0
   -0.2872    4.0919    2.1314 H   0  0  0  0  0  0  0  0  0  0  0  0
    4.0505   -6.1538   -1.4411 H   0  0  0  0  0  0  0  0  0  0  0  0
    5.7999   -5.9849   -1.4530 H   0  0  0  0  0  0  0  0  0  0  0  0
    4.7988   -4.8016   -2.2921 H   0  0  0  0  0  0  0  0  0  0  0  0
    4.0531   -6.2089    1.1059 H   0  0  0  0  0  0  0  0  0  0  0  0
    5.8010   -6.0315    1.1322 H   0  0  0  0  0  0  0  0  0  0  0  0
    4.7903   -4.8876    2.0133 H   0  0  0  0  0  0  0  0  0  0  0  0
    6.9595   -4.3216   -0.1230 H   0  0  0  0  0  0  0  0  0  0  0  0
    6.1156   -3.0508   -0.9922 H   0  0  0  0  0  0  0  0  0  0  0  0
    6.1096   -3.0804    0.7828 H   0  0  0  0  0  0  0  0  0  0  0  0
   -5.0268   -4.7493    2.0244 H   0  0  0  0  0  0  0  0  0  0  0  0
   -4.3361   -6.0900    1.1096 H   0  0  0  0  0  0  0  0  0  0  0  0
   -6.0778   -5.8575    1.1442 H   0  0  0  0  0  0  0  0  0  0  0  0
   -5.0605   -4.6522   -2.2805 H   0  0  0  0  0  0  0  0  0  0  0  0
   -4.3433   -6.0258   -1.4381 H   0  0  0  0  0  0  0  0  0  0  0  0
   -6.0878   -5.8080   -1.4340 H   0  0  0  0  0  0  0  0  0  0  0  0
   -6.3106   -2.8649   -0.9699 H   0  0  0  0  0  0  0  0  0  0  0  0
   -6.2932   -2.8972    0.8057 H   0  0  0  0  0  0  0  0  0  0  0  0
   -7.1864   -4.1100   -0.0961 H   0  0  0  0  0  0  0  0  0  0  0  0
   -2.4630   -0.2466   -0.0789 O   0  0  0  0  0  0  0  0  0  0  0  0
   -0.1320   -5.4379   -0.1387 H   0  0  0  0  0  0  0  0  0  0  0  0
  1  2  2  0  0  0  0
  1 35  1  0  0  0  0
  2  3  1  0  0  0  0
  3  7  2  0  0  0  0
  4  5  1  0  0  0  0
  5  6  2  0  0  0  0
  5 34  1  0  0  0  0
  6  1  1  0  0  0  0
  6 22  1  0  0  0  0
  8  9  1  0  0  0  0
 10  4  2  0  0  0  0
 11 12  2  0  0  0  0
 11 18  1  0  0  0  0
 13 14  1  0  0  0  0
 14  8  2  0  0  0  0
 15 16  2  0  0  0  0
 15 37  1  0  0  0  0
 16 24  1  0  0  0  0
 17  9  2  0  0  0  0
 17 36  1  0  0  0  0
 18 19  2  0  0  0  0
 19 20  1  0  0  0  0
 19 39  1  0  0  0  0
 20 21  2  0  0  0  0
 20 23  1  0  0  0  0
 21 12  1  0  0  0  0
 21 38  1  0  0  0  0
 22 31  1  0  0  0  0
 22 32  1  0  0  0  0
 22 33  1  0  0  0  0
 23 25  1  0  0  0  0
 23 26  1  0  0  0  0
 23 27  1  0  0  0  0
 24 28  1  0  0  0  0
 24 29  1  0  0  0  0
 24 30  1  0  0  0  0
 25 64  1  0  0  0  0
 25 65  1  0  0  0  0
 25 66  1  0  0  0  0
 26 61  1  0  0  0  0
 26 62  1  0  0  0  0
 26 63  1  0  0  0  0
 27 58  1  0  0  0  0
 27 59  1  0  0  0  0
 27 60  1  0  0  0  0
 28 49  1  0  0  0  0
 28 50  1  0  0  0  0
 28 51  1  0  0  0  0
 29 55  1  0  0  0  0
 29 56  1  0  0  0  0
 29 57  1  0  0  0  0
 30 52  1  0  0  0  0
 30 53  1  0  0  0  0
 30 54  1  0  0  0  0
 31 46  1  0  0  0  0
 31 47  1  0  0  0  0
 31 48  1  0  0  0  0
 32 43  1  0  0  0  0
 32 44  1  0  0  0  0
 32 45  1  0  0  0  0
 33 40  1  0  0  0  0
 33 41  1  0  0  0  0
 33 42  1  0  0  0  0
 18 67  1  0  0  0  0
 67  2  1  0  0  0  0
 12 13  1  0  0  0  0
 10  9  1  0  0  0  0
 17 16  1  0  0  0  0
 14 15  1  0  0  0  0
  3  4  1  0  0  0  0
 11  7  1  0  0  0  0
  7  8  1  0  0  0  0
 13 68  1  0  0  0  0
M  CHG  1   1   1
M  END
