 energy: -187.565760049790 gnorm: 0.000129193843 xtb: 6.7.1 (edcfbbe)
          03102510583D

136146  0     0  0            999 V2000
   -1.4705   -0.1553    0.2807 C   0  0  0  0  0  0  0  0  0  0  0  0
   -1.3907   -1.4558    0.7061 C   0  0  0  0  0  0  0  0  0  0  0  0
   -0.1221   -2.0246    0.9373 C   0  0  0  0  0  0  0  0  0  0  0  0
    1.0797   -1.2880    0.7403 C   0  0  0  0  0  0  0  0  0  0  0  0
    0.9395    0.0560    0.3321 C   0  0  0  0  0  0  0  0  0  0  0  0
   -0.2956    0.6081    0.0823 C   0  0  0  0  0  0  0  0  0  0  0  0
   -0.0210   -3.3655    1.2904 C   0  0  0  0  0  0  0  0  0  0  0  0
    1.2284   -3.9598    1.3989 C   0  0  0  0  0  0  0  0  0  0  0  0
    2.3762   -3.1627    1.1256 C   0  0  0  0  0  0  0  0  0  0  0  0
    2.2840   -1.8612    0.8419 N   0  0  0  0  0  0  0  0  0  0  0  0
   -1.2081   -4.1386    1.4106 C   0  0  0  0  0  0  0  0  0  0  0  0
   -1.1075   -5.5085    1.6938 C   0  0  0  0  0  0  0  0  0  0  0  0
    0.1455   -6.0415    1.8941 N   0  0  0  0  0  0  0  0  0  0  0  0
    1.3262   -5.3464    1.6594 C   0  0  0  0  0  0  0  0  0  0  0  0
    2.5620   -5.9408    1.6146 C   0  0  0  0  0  0  0  0  0  0  0  0
    3.7146   -5.1911    1.2761 C   0  0  0  0  0  0  0  0  0  0  0  0
    3.6197   -3.8355    1.0702 C   0  0  0  0  0  0  0  0  0  0  0  0
   -2.4406   -3.5355    1.1501 C   0  0  0  0  0  0  0  0  0  0  0  0
   -3.5865   -4.3227    1.1593 C   0  0  0  0  0  0  0  0  0  0  0  0
   -3.5093   -5.6845    1.4418 C   0  0  0  0  0  0  0  0  0  0  0  0
   -2.2734   -6.2632    1.7290 C   0  0  0  0  0  0  0  0  0  0  0  0
   -0.4128    1.9860   -0.5555 C   0  0  0  0  0  0  0  0  0  0  0  0
   -4.7373   -6.5847    1.4003 C   0  0  0  0  0  0  0  0  0  0  0  0
    5.0133   -5.9609    1.0653 C   0  0  0  0  0  0  0  0  0  0  0  0
   -6.0180   -5.8333    1.0264 C   0  0  0  0  0  0  0  0  0  0  0  0
   -4.5106   -7.6749    0.3416 C   0  0  0  0  0  0  0  0  0  0  0  0
   -4.9441   -7.2353    2.7754 C   0  0  0  0  0  0  0  0  0  0  0  0
    4.7823   -6.9895   -0.0540 C   0  0  0  0  0  0  0  0  0  0  0  0
    6.1748   -5.0615    0.6342 C   0  0  0  0  0  0  0  0  0  0  0  0
    5.4255   -6.6866    2.3525 C   0  0  0  0  0  0  0  0  0  0  0  0
   -1.7035    2.7087   -0.1516 C   0  0  0  0  0  0  0  0  0  0  0  0
   -0.4235    1.7638   -2.0773 C   0  0  0  0  0  0  0  0  0  0  0  0
    0.7728    2.8871   -0.1957 C   0  0  0  0  0  0  0  0  0  0  0  0
    1.8502    0.6090    0.1848 H   0  0  0  0  0  0  0  0  0  0  0  0
   -2.4431    0.2601    0.0817 H   0  0  0  0  0  0  0  0  0  0  0  0
    4.4720   -3.2361    0.8021 H   0  0  0  0  0  0  0  0  0  0  0  0
    2.6404   -7.0030    1.7933 H   0  0  0  0  0  0  0  0  0  0  0  0
   -2.2007   -7.3183    1.9445 H   0  0  0  0  0  0  0  0  0  0  0  0
   -4.5211   -3.8516    0.9134 H   0  0  0  0  0  0  0  0  0  0  0  0
    0.8955    2.9498    0.8823 H   0  0  0  0  0  0  0  0  0  0  0  0
    1.6978    2.5231   -0.6335 H   0  0  0  0  0  0  0  0  0  0  0  0
    0.5989    3.8881   -0.5856 H   0  0  0  0  0  0  0  0  0  0  0  0
   -1.2641    1.1370   -2.3675 H   0  0  0  0  0  0  0  0  0  0  0  0
   -0.5059    2.7171   -2.5950 H   0  0  0  0  0  0  0  0  0  0  0  0
    0.4934    1.2724   -2.3949 H   0  0  0  0  0  0  0  0  0  0  0  0
   -2.5804    2.2435   -0.5941 H   0  0  0  0  0  0  0  0  0  0  0  0
   -1.6698    3.7388   -0.5004 H   0  0  0  0  0  0  0  0  0  0  0  0
   -1.8168    2.7187    0.9279 H   0  0  0  0  0  0  0  0  0  0  0  0
    4.0452   -7.7351    0.2311 H   0  0  0  0  0  0  0  0  0  0  0  0
    5.7123   -7.5052   -0.2840 H   0  0  0  0  0  0  0  0  0  0  0  0
    4.4326   -6.4904   -0.9553 H   0  0  0  0  0  0  0  0  0  0  0  0
    4.6364   -7.3386    2.7176 H   0  0  0  0  0  0  0  0  0  0  0  0
    6.3083   -7.2953    2.1675 H   0  0  0  0  0  0  0  0  0  0  0  0
    5.6623   -5.9656    3.1295 H   0  0  0  0  0  0  0  0  0  0  0  0
    7.0650   -5.6699    0.4860 H   0  0  0  0  0  0  0  0  0  0  0  0
    5.9503   -4.5584   -0.3029 H   0  0  0  0  0  0  0  0  0  0  0  0
    6.4018   -4.3161    1.3915 H   0  0  0  0  0  0  0  0  0  0  0  0
   -5.1071   -6.4747    3.5355 H   0  0  0  0  0  0  0  0  0  0  0  0
   -4.0837   -7.8310    3.0674 H   0  0  0  0  0  0  0  0  0  0  0  0
   -5.8145   -7.8870    2.7504 H   0  0  0  0  0  0  0  0  0  0  0  0
   -4.3166   -7.2215   -0.6280 H   0  0  0  0  0  0  0  0  0  0  0  0
   -3.6677   -8.3114    0.5950 H   0  0  0  0  0  0  0  0  0  0  0  0
   -5.3952   -8.3023    0.2584 H   0  0  0  0  0  0  0  0  0  0  0  0
   -5.9326   -5.3851    0.0395 H   0  0  0  0  0  0  0  0  0  0  0  0
   -6.2519   -5.0589    1.7515 H   0  0  0  0  0  0  0  0  0  0  0  0
   -6.8509   -6.5330    1.0051 H   0  0  0  0  0  0  0  0  0  0  0  0
   -2.5361   -2.2140    0.8417 O   0  0  0  0  0  0  0  0  0  0  0  0
    0.2143   -7.0406    2.0263 H   0  0  0  0  0  0  0  0  0  0  0  0
   -0.8494    3.5931    3.2902 C   0  0  0  0  0  0  0  0  0  0  0  0
   -1.0349    2.2396    3.3959 C   0  0  0  0  0  0  0  0  0  0  0  0
    0.0880    1.4052    3.5581 C   0  0  0  0  0  0  0  0  0  0  0  0
    1.4104    1.9256    3.6192 C   0  0  0  0  0  0  0  0  0  0  0  0
    1.5482    3.3275    3.4823 C   0  0  0  0  0  0  0  0  0  0  0  0
    0.4542    4.1446    3.3305 C   0  0  0  0  0  0  0  0  0  0  0  0
   -0.0913    0.0375    3.7312 C   0  0  0  0  0  0  0  0  0  0  0  0
    1.0044   -0.7772    3.9739 C   0  0  0  0  0  0  0  0  0  0  0  0
    2.2922   -0.1715    4.0285 C   0  0  0  0  0  0  0  0  0  0  0  0
    2.4689    1.1419    3.8399 N   0  0  0  0  0  0  0  0  0  0  0  0
   -1.4079   -0.4912    3.7462 C   0  0  0  0  0  0  0  0  0  0  0  0
   -1.5971   -1.8568    3.9926 C   0  0  0  0  0  0  0  0  0  0  0  0
   -0.4859   -2.6415    4.1829 N   0  0  0  0  0  0  0  0  0  0  0  0
    0.8123   -2.1534    4.2258 C   0  0  0  0  0  0  0  0  0  0  0  0
    1.9019   -2.9300    4.5404 C   0  0  0  0  0  0  0  0  0  0  0  0
    3.1862   -2.3555    4.6288 C   0  0  0  0  0  0  0  0  0  0  0  0
    3.3692   -1.0165    4.3620 C   0  0  0  0  0  0  0  0  0  0  0  0
   -2.4900    0.3749    3.5677 C   0  0  0  0  0  0  0  0  0  0  0  0
   -3.7736   -0.1405    3.6308 C   0  0  0  0  0  0  0  0  0  0  0  0
   -3.9839   -1.4976    3.8851 C   0  0  0  0  0  0  0  0  0  0  0  0
   -2.8983   -2.3483    4.0577 C   0  0  0  0  0  0  0  0  0  0  0  0
    0.5750    5.6587    3.2261 C   0  0  0  0  0  0  0  0  0  0  0  0
   -5.4191   -1.9891    3.9977 C   0  0  0  0  0  0  0  0  0  0  0  0
    4.3803   -3.1792    5.0923 C   0  0  0  0  0  0  0  0  0  0  0  0
   -6.1625   -1.6728    2.6925 C   0  0  0  0  0  0  0  0  0  0  0  0
   -5.5049   -3.4957    4.2532 C   0  0  0  0  0  0  0  0  0  0  0  0
   -6.1003   -1.2693    5.1708 C   0  0  0  0  0  0  0  0  0  0  0  0
    4.0538   -4.6677    5.2435 C   0  0  0  0  0  0  0  0  0  0  0  0
    5.5241   -3.0427    4.0811 C   0  0  0  0  0  0  0  0  0  0  0  0
    4.8313   -2.6440    6.4596 C   0  0  0  0  0  0  0  0  0  0  0  0
   -0.1711    6.2950    4.4079 C   0  0  0  0  0  0  0  0  0  0  0  0
   -0.0434    6.1341    1.9043 C   0  0  0  0  0  0  0  0  0  0  0  0
    2.0278    6.1392    3.2666 C   0  0  0  0  0  0  0  0  0  0  0  0
    2.5503    3.7166    3.5224 H   0  0  0  0  0  0  0  0  0  0  0  0
   -1.7138    4.2278    3.1843 H   0  0  0  0  0  0  0  0  0  0  0  0
    4.3415   -0.5584    4.4295 H   0  0  0  0  0  0  0  0  0  0  0  0
    1.7502   -3.9788    4.7365 H   0  0  0  0  0  0  0  0  0  0  0  0
   -3.0364   -3.3990    4.2536 H   0  0  0  0  0  0  0  0  0  0  0  0
   -4.6007    0.5360    3.4956 H   0  0  0  0  0  0  0  0  0  0  0  0
    2.5030    5.8681    4.2059 H   0  0  0  0  0  0  0  0  0  0  0  0
    2.6003    5.7185    2.4438 H   0  0  0  0  0  0  0  0  0  0  0  0
    2.0528    7.2236    3.1765 H   0  0  0  0  0  0  0  0  0  0  0  0
   -1.0857    5.8409    1.8207 H   0  0  0  0  0  0  0  0  0  0  0  0
    0.0119    7.2187    1.8363 H   0  0  0  0  0  0  0  0  0  0  0  0
    0.5005    5.7074    1.0653 H   0  0  0  0  0  0  0  0  0  0  0  0
   -1.2298    6.0526    4.3877 H   0  0  0  0  0  0  0  0  0  0  0  0
   -0.0692    7.3779    4.3753 H   0  0  0  0  0  0  0  0  0  0  0  0
    0.2429    5.9372    5.3482 H   0  0  0  0  0  0  0  0  0  0  0  0
    3.3140   -4.8312    6.0242 H   0  0  0  0  0  0  0  0  0  0  0  0
    4.9546   -5.2099    5.5261 H   0  0  0  0  0  0  0  0  0  0  0  0
    3.6859   -5.0792    4.3064 H   0  0  0  0  0  0  0  0  0  0  0  0
    4.0259   -2.7344    7.1859 H   0  0  0  0  0  0  0  0  0  0  0  0
    5.6880   -3.2099    6.8207 H   0  0  0  0  0  0  0  0  0  0  0  0
    5.1120   -1.5968    6.3935 H   0  0  0  0  0  0  0  0  0  0  0  0
    6.3635   -3.6714    4.3743 H   0  0  0  0  0  0  0  0  0  0  0  0
    5.1750   -3.3473    3.0985 H   0  0  0  0  0  0  0  0  0  0  0  0
    5.8768   -2.0182    4.0160 H   0  0  0  0  0  0  0  0  0  0  0  0
   -6.1148   -0.1937    5.0218 H   0  0  0  0  0  0  0  0  0  0  0  0
   -5.5706   -1.4770    6.0982 H   0  0  0  0  0  0  0  0  0  0  0  0
   -7.1268   -1.6145    5.2742 H   0  0  0  0  0  0  0  0  0  0  0  0
   -5.0070   -4.0491    3.4612 H   0  0  0  0  0  0  0  0  0  0  0  0
   -5.0532   -3.7556    5.2083 H   0  0  0  0  0  0  0  0  0  0  0  0
   -6.5494   -3.8007    4.2849 H   0  0  0  0  0  0  0  0  0  0  0  0
   -5.6186   -2.0778    1.8431 H   0  0  0  0  0  0  0  0  0  0  0  0
   -6.2647   -0.6017    2.5463 H   0  0  0  0  0  0  0  0  0  0  0  0
   -7.1596   -2.1083    2.7118 H   0  0  0  0  0  0  0  0  0  0  0  0
   -2.3068    1.7092    3.3654 O   0  0  0  0  0  0  0  0  0  0  0  0
   -0.6250   -3.6234    4.3746 H   0  0  0  0  0  0  0  0  0  0  0  0
  1  2  2  0  0  0  0
  1 35  1  0  0  0  0
  2  3  1  0  0  0  0
  3  7  2  0  0  0  0
  3  4  1  0  0  0  0
  4  5  1  0  0  0  0
  5  6  2  0  0  0  0
  5 34  1  0  0  0  0
  6  1  1  0  0  0  0
  6 22  1  0  0  0  0
  7  8  1  0  0  0  0
  8  9  1  0  0  0  0
 10  4  2  0  0  0  0
 10  9  1  0  0  0  0
 11 12  2  0  0  0  0
 11 18  1  0  0  0  0
 11  7  1  0  0  0  0
 12 13  1  0  0  0  0
 13 14  1  0  0  0  0
 13 68  1  0  0  0  0
 14  8  2  0  0  0  0
 14 15  1  0  0  0  0
 15 16  2  0  0  0  0
 15 37  1  0  0  0  0
 16 24  1  0  0  0  0
 17  9  2  0  0  0  0
 17 36  1  0  0  0  0
 17 16  1  0  0  0  0
 18 19  2  0  0  0  0
 18 67  1  0  0  0  0
 19 20  1  0  0  0  0
 19 39  1  0  0  0  0
 20 21  2  0  0  0  0
 20 23  1  0  0  0  0
 21 12  1  0  0  0  0
 21 38  1  0  0  0  0
 22 31  1  0  0  0  0
 22 32  1  0  0  0  0
 22 33  1  0  0  0  0
 23 25  1  0  0  0  0
 23 26  1  0  0  0  0
 23 27  1  0  0  0  0
 24 28  1  0  0  0  0
 24 29  1  0  0  0  0
 24 30  1  0  0  0  0
 25 64  1  0  0  0  0
 25 65  1  0  0  0  0
 25 66  1  0  0  0  0
 26 61  1  0  0  0  0
 26 62  1  0  0  0  0
 26 63  1  0  0  0  0
 27 58  1  0  0  0  0
 27 59  1  0  0  0  0
 27 60  1  0  0  0  0
 28 49  1  0  0  0  0
 28 50  1  0  0  0  0
 28 51  1  0  0  0  0
 29 55  1  0  0  0  0
 29 56  1  0  0  0  0
 29 57  1  0  0  0  0
 30 52  1  0  0  0  0
 30 53  1  0  0  0  0
 30 54  1  0  0  0  0
 31 46  1  0  0  0  0
 31 47  1  0  0  0  0
 31 48  1  0  0  0  0
 32 43  1  0  0  0  0
 32 44  1  0  0  0  0
 32 45  1  0  0  0  0
 33 40  1  0  0  0  0
 33 41  1  0  0  0  0
 33 42  1  0  0  0  0
 67  2  1  0  0  0  0
 69 70  2  0  0  0  0
 69103  1  0  0  0  0
 70 71  1  0  0  0  0
 71 75  2  0  0  0  0
 71 72  1  0  0  0  0
 72 73  1  0  0  0  0
 73 74  2  0  0  0  0
 73102  1  0  0  0  0
 74 69  1  0  0  0  0
 74 90  1  0  0  0  0
 75 76  1  0  0  0  0
 76 77  1  0  0  0  0
 78 72  2  0  0  0  0
 78 77  1  0  0  0  0
 79 80  2  0  0  0  0
 79 86  1  0  0  0  0
 79 75  1  0  0  0  0
 80 81  1  0  0  0  0
 81 82  1  0  0  0  0
 81136  1  0  0  0  0
 82 76  2  0  0  0  0
 82 83  1  0  0  0  0
 83 84  2  0  0  0  0
 83105  1  0  0  0  0
 84 92  1  0  0  0  0
 85 77  2  0  0  0  0
 85104  1  0  0  0  0
 85 84  1  0  0  0  0
 86 87  2  0  0  0  0
 86135  1  0  0  0  0
 87 88  1  0  0  0  0
 87107  1  0  0  0  0
 88 89  2  0  0  0  0
 88 91  1  0  0  0  0
 89 80  1  0  0  0  0
 89106  1  0  0  0  0
 90 99  1  0  0  0  0
 90100  1  0  0  0  0
 90101  1  0  0  0  0
 91 93  1  0  0  0  0
 91 94  1  0  0  0  0
 91 95  1  0  0  0  0
 92 96  1  0  0  0  0
 92 97  1  0  0  0  0
 92 98  1  0  0  0  0
 93132  1  0  0  0  0
 93133  1  0  0  0  0
 93134  1  0  0  0  0
 94129  1  0  0  0  0
 94130  1  0  0  0  0
 94131  1  0  0  0  0
 95126  1  0  0  0  0
 95127  1  0  0  0  0
 95128  1  0  0  0  0
 96117  1  0  0  0  0
 96118  1  0  0  0  0
 96119  1  0  0  0  0
 97123  1  0  0  0  0
 97124  1  0  0  0  0
 97125  1  0  0  0  0
 98120  1  0  0  0  0
 98121  1  0  0  0  0
 98122  1  0  0  0  0
 99114  1  0  0  0  0
 99115  1  0  0  0  0
 99116  1  0  0  0  0
100111  1  0  0  0  0
100112  1  0  0  0  0
100113  1  0  0  0  0
101108  1  0  0  0  0
101109  1  0  0  0  0
101110  1  0  0  0  0
135 70  1  0  0  0  0
M  END
