 energy: -254.056914545343 gnorm: 0.000167060336 xtb: 6.7.1 (edcfbbe)
          03032513523D

156164  0     0  0            999 V2000
    1.0197    3.3487   -2.0469 C   0  0  0  0  0  0  0  0  0  0  0  0
    1.6476   -2.7551    1.8887 C   0  0  0  0  0  0  0  0  0  0  0  0
   -3.7366    1.4574   -1.5208 C   0  0  0  0  0  0  0  0  0  0  0  0
   -2.9173    0.7470   -0.6679 C   0  0  0  0  0  0  0  0  0  0  0  0
   -1.5411    1.0807   -0.5562 C   0  0  0  0  0  0  0  0  0  0  0  0
   -0.9862    2.0065   -1.4721 C   0  0  0  0  0  0  0  0  0  0  0  0
   -1.8271    2.6995   -2.3345 C   0  0  0  0  0  0  0  0  0  0  0  0
   -3.1967    2.4599   -2.3284 C   0  0  0  0  0  0  0  0  0  0  0  0
   -0.6660    0.4254    0.3660 C   0  0  0  0  0  0  0  0  0  0  0  0
    0.6806    0.2705   -0.0472 C   0  0  0  0  0  0  0  0  0  0  0  0
    1.1934    1.1317   -1.0443 C   0  0  0  0  0  0  0  0  0  0  0  0
    0.3887    2.1641   -1.5019 N   0  0  0  0  0  0  0  0  0  0  0  0
   -1.0391   -0.1508    1.6113 C   0  0  0  0  0  0  0  0  0  0  0  0
   -0.2481   -1.2001    2.1458 C   0  0  0  0  0  0  0  0  0  0  0  0
    0.9454   -1.5425    1.5218 N   0  0  0  0  0  0  0  0  0  0  0  0
    1.4777   -0.7611    0.5048 C   0  0  0  0  0  0  0  0  0  0  0  0
    2.7371   -0.9795   -0.0399 C   0  0  0  0  0  0  0  0  0  0  0  0
    3.2236   -0.1497   -1.0494 C   0  0  0  0  0  0  0  0  0  0  0  0
    2.4729    0.9209   -1.5266 C   0  0  0  0  0  0  0  0  0  0  0  0
   -2.1594    0.3283    2.3456 C   0  0  0  0  0  0  0  0  0  0  0  0
   -2.6073   -0.3610    3.4495 C   0  0  0  0  0  0  0  0  0  0  0  0
   -1.9079   -1.4866    3.8874 C   0  0  0  0  0  0  0  0  0  0  0  0
   -0.7226   -1.8719    3.2673 C   0  0  0  0  0  0  0  0  0  0  0  0
   -2.6899    1.5034    1.9155 O   0  0  0  0  0  0  0  0  0  0  0  0
   -3.3327   -0.3334    0.0502 O   0  0  0  0  0  0  0  0  0  0  0  0
   -4.0369    3.2476   -3.2450 C   0  0  0  0  0  0  0  0  0  0  0  0
   -2.4529   -2.2323    5.0301 C   0  0  0  0  0  0  0  0  0  0  0  0
    4.5290   -0.3805   -1.6875 C   0  0  0  0  0  0  0  0  0  0  0  0
    5.0049    0.3166   -2.5528 O   0  0  0  0  0  0  0  0  0  0  0  0
    5.1592   -1.4897   -1.2342 O   0  0  0  0  0  0  0  0  0  0  0  0
    6.3967   -1.7804   -1.8644 C   0  0  0  0  0  0  0  0  0  0  0  0
   -3.6253    4.1140   -3.9827 O   0  0  0  0  0  0  0  0  0  0  0  0
   -5.3411    2.9068   -3.1856 O   0  0  0  0  0  0  0  0  0  0  0  0
   -6.2012    3.6321   -4.0473 C   0  0  0  0  0  0  0  0  0  0  0  0
   -3.5611   -2.0604    5.4887 O   0  0  0  0  0  0  0  0  0  0  0  0
   -1.5922   -3.1564    5.5033 O   0  0  0  0  0  0  0  0  0  0  0  0
   -2.0045   -3.9102    6.6313 C   0  0  0  0  0  0  0  0  0  0  0  0
   -4.7895    1.2487   -1.5983 H   0  0  0  0  0  0  0  0  0  0  0  0
   -1.4617    3.4163   -3.0506 H   0  0  0  0  0  0  0  0  0  0  0  0
   -3.4783   -0.0569    4.0055 H   0  0  0  0  0  0  0  0  0  0  0  0
   -0.2174   -2.7197    3.6913 H   0  0  0  0  0  0  0  0  0  0  0  0
    3.3751   -1.7823    0.2819 H   0  0  0  0  0  0  0  0  0  0  0  0
    2.9090    1.5306   -2.2991 H   0  0  0  0  0  0  0  0  0  0  0  0
    1.3148   -3.9033    0.9311 C   0  0  0  0  0  0  0  0  0  0  0  0
    2.0319   -5.1836    1.3369 C   0  0  0  0  0  0  0  0  0  0  0  0
    1.8936    4.0406   -0.9955 C   0  0  0  0  0  0  0  0  0  0  0  0
    2.5578    5.2833   -1.5727 C   0  0  0  0  0  0  0  0  0  0  0  0
   -3.9168    1.9339    2.4597 C   0  0  0  0  0  0  0  0  0  0  0  0
   -4.6614   -0.7683   -0.0934 C   0  0  0  0  0  0  0  0  0  0  0  0
   -7.2003    3.2338   -3.8881 H   0  0  0  0  0  0  0  0  0  0  0  0
   -5.8968    3.5005   -5.0880 H   0  0  0  0  0  0  0  0  0  0  0  0
   -6.1703    4.6974   -3.8077 H   0  0  0  0  0  0  0  0  0  0  0  0
   -1.7073   -4.9448    6.4630 H   0  0  0  0  0  0  0  0  0  0  0  0
   -3.0876   -3.8406    6.7480 H   0  0  0  0  0  0  0  0  0  0  0  0
   -1.5109   -3.5141    7.5207 H   0  0  0  0  0  0  0  0  0  0  0  0
    6.7676   -2.6936   -1.4052 H   0  0  0  0  0  0  0  0  0  0  0  0
    7.1030   -0.9603   -1.7160 H   0  0  0  0  0  0  0  0  0  0  0  0
    6.2496   -1.9229   -2.9369 H   0  0  0  0  0  0  0  0  0  0  0  0
    1.3845   -3.0386    2.9044 H   0  0  0  0  0  0  0  0  0  0  0  0
    2.7217   -2.5642    1.8943 H   0  0  0  0  0  0  0  0  0  0  0  0
    1.6038   -3.6208   -0.0829 H   0  0  0  0  0  0  0  0  0  0  0  0
    0.2347   -4.0643    0.9380 H   0  0  0  0  0  0  0  0  0  0  0  0
    3.1091   -5.0310    1.3476 H   0  0  0  0  0  0  0  0  0  0  0  0
    1.8069   -5.9844    0.6374 H   0  0  0  0  0  0  0  0  0  0  0  0
    1.7173   -5.4985    2.3295 H   0  0  0  0  0  0  0  0  0  0  0  0
   -4.2170    2.7910    1.8579 H   0  0  0  0  0  0  0  0  0  0  0  0
   -3.8120    2.2457    3.5020 H   0  0  0  0  0  0  0  0  0  0  0  0
   -4.6796    1.1535    2.3918 H   0  0  0  0  0  0  0  0  0  0  0  0
   -4.7550   -1.6347    0.5604 H   0  0  0  0  0  0  0  0  0  0  0  0
   -4.8773   -1.0648   -1.1252 H   0  0  0  0  0  0  0  0  0  0  0  0
   -5.3787   -0.0021    0.2176 H   0  0  0  0  0  0  0  0  0  0  0  0
    3.1619    5.7752   -0.8151 H   0  0  0  0  0  0  0  0  0  0  0  0
    1.8107    5.9894   -1.9290 H   0  0  0  0  0  0  0  0  0  0  0  0
    3.2044    5.0170   -2.4054 H   0  0  0  0  0  0  0  0  0  0  0  0
    2.6573    3.3522   -0.6310 H   0  0  0  0  0  0  0  0  0  0  0  0
    1.2588    4.3193   -0.1516 H   0  0  0  0  0  0  0  0  0  0  0  0
    0.2453    4.0480   -2.3552 H   0  0  0  0  0  0  0  0  0  0  0  0
    1.6170    3.0966   -2.9292 H   0  0  0  0  0  0  0  0  0  0  0  0
    0.0665    2.6775    3.5143 C   0  0  0  0  0  0  0  0  0  0  0  0
    2.5212   -3.7255    5.9701 C   0  0  0  0  0  0  0  0  0  0  0  0
   -3.2321    1.1415    7.0456 C   0  0  0  0  0  0  0  0  0  0  0  0
   -2.1848    0.2465    7.1124 C   0  0  0  0  0  0  0  0  0  0  0  0
   -0.9935    0.4803    6.3685 C   0  0  0  0  0  0  0  0  0  0  0  0
   -0.9759    1.5224    5.4061 C   0  0  0  0  0  0  0  0  0  0  0  0
   -2.0127    2.4485    5.4131 C   0  0  0  0  0  0  0  0  0  0  0  0
   -3.1199    2.2732    6.2390 C   0  0  0  0  0  0  0  0  0  0  0  0
    0.1633   -0.3366    6.5116 C   0  0  0  0  0  0  0  0  0  0  0  0
    1.1001   -0.3467    5.4502 C   0  0  0  0  0  0  0  0  0  0  0  0
    1.0894    0.6849    4.4789 C   0  0  0  0  0  0  0  0  0  0  0  0
    0.0687    1.6145    4.5011 N   0  0  0  0  0  0  0  0  0  0  0  0
    0.5086   -1.0965    7.6727 C   0  0  0  0  0  0  0  0  0  0  0  0
    1.3571   -2.2178    7.5178 C   0  0  0  0  0  0  0  0  0  0  0  0
    1.9613   -2.4292    6.2896 N   0  0  0  0  0  0  0  0  0  0  0  0
    2.0792   -1.3690    5.4019 C   0  0  0  0  0  0  0  0  0  0  0  0
    3.1157   -1.2788    4.4877 C   0  0  0  0  0  0  0  0  0  0  0  0
    3.1540   -0.2105    3.5946 C   0  0  0  0  0  0  0  0  0  0  0  0
    2.1407    0.7449    3.5739 C   0  0  0  0  0  0  0  0  0  0  0  0
    0.1134   -0.7178    8.9839 C   0  0  0  0  0  0  0  0  0  0  0  0
    0.3363   -1.5760   10.0401 C   0  0  0  0  0  0  0  0  0  0  0  0
    1.0276   -2.7733    9.8385 C   0  0  0  0  0  0  0  0  0  0  0  0
    1.5828   -3.0654    8.5964 C   0  0  0  0  0  0  0  0  0  0  0  0
   -0.4118    0.5293    9.1157 O   0  0  0  0  0  0  0  0  0  0  0  0
   -2.2313   -0.9044    7.8297 O   0  0  0  0  0  0  0  0  0  0  0  0
   -4.1851    3.2848    6.1798 C   0  0  0  0  0  0  0  0  0  0  0  0
    1.1979   -3.6682   10.9921 C   0  0  0  0  0  0  0  0  0  0  0  0
    4.2762   -0.0296    2.6598 C   0  0  0  0  0  0  0  0  0  0  0  0
    4.4029    0.9118    1.9100 O   0  0  0  0  0  0  0  0  0  0  0  0
    5.1783   -1.0296    2.7360 O   0  0  0  0  0  0  0  0  0  0  0  0
    6.3135   -0.9026    1.8942 C   0  0  0  0  0  0  0  0  0  0  0  0
   -4.2339    4.1829    5.3670 O   0  0  0  0  0  0  0  0  0  0  0  0
   -5.1270    3.1150    7.1285 O   0  0  0  0  0  0  0  0  0  0  0  0
   -6.1837    4.0590    7.1172 C   0  0  0  0  0  0  0  0  0  0  0  0
    0.7791   -3.4459   12.1059 O   0  0  0  0  0  0  0  0  0  0  0  0
    1.8750   -4.7967   10.6860 O   0  0  0  0  0  0  0  0  0  0  0  0
    2.0710   -5.6999   11.7603 C   0  0  0  0  0  0  0  0  0  0  0  0
   -4.1414    0.9940    7.6009 H   0  0  0  0  0  0  0  0  0  0  0  0
   -2.0063    3.3382    4.8077 H   0  0  0  0  0  0  0  0  0  0  0  0
    0.0045   -1.3572   11.0415 H   0  0  0  0  0  0  0  0  0  0  0  0
    2.1972   -3.9433    8.5114 H   0  0  0  0  0  0  0  0  0  0  0  0
    3.9266   -1.9867    4.4751 H   0  0  0  0  0  0  0  0  0  0  0  0
    2.2519    1.5290    2.8457 H   0  0  0  0  0  0  0  0  0  0  0  0
    1.4405   -4.8105    5.9024 C   0  0  0  0  0  0  0  0  0  0  0  0
    2.0480   -6.1577    5.5330 C   0  0  0  0  0  0  0  0  0  0  0  0
    0.7954    3.9211    4.0303 C   0  0  0  0  0  0  0  0  0  0  0  0
    0.8403    5.0160    2.9740 C   0  0  0  0  0  0  0  0  0  0  0  0
   -0.8205    0.9528   10.3926 C   0  0  0  0  0  0  0  0  0  0  0  0
   -3.4245   -1.2241    8.5056 C   0  0  0  0  0  0  0  0  0  0  0  0
   -6.8429    3.7896    7.9386 H   0  0  0  0  0  0  0  0  0  0  0  0
   -6.7196    4.0199    6.1661 H   0  0  0  0  0  0  0  0  0  0  0  0
   -5.7925    5.0696    7.2548 H   0  0  0  0  0  0  0  0  0  0  0  0
    2.6111   -6.5498   11.3504 H   0  0  0  0  0  0  0  0  0  0  0  0
    1.1101   -6.0178   12.1712 H   0  0  0  0  0  0  0  0  0  0  0  0
    2.6496   -5.2256   12.5562 H   0  0  0  0  0  0  0  0  0  0  0  0
    7.0208   -1.6626    2.2180 H   0  0  0  0  0  0  0  0  0  0  0  0
    6.7473    0.0945    1.9910 H   0  0  0  0  0  0  0  0  0  0  0  0
    6.0256   -1.0635    0.8547 H   0  0  0  0  0  0  0  0  0  0  0  0
    3.2900   -4.0042    6.6992 H   0  0  0  0  0  0  0  0  0  0  0  0
    2.9976   -3.6648    4.9926 H   0  0  0  0  0  0  0  0  0  0  0  0
    0.6938   -4.5181    5.1620 H   0  0  0  0  0  0  0  0  0  0  0  0
    0.9333   -4.8900    6.8634 H   0  0  0  0  0  0  0  0  0  0  0  0
    2.5739   -6.0996    4.5820 H   0  0  0  0  0  0  0  0  0  0  0  0
    1.2726   -6.9150    5.4503 H   0  0  0  0  0  0  0  0  0  0  0  0
    2.7568   -6.4775    6.2936 H   0  0  0  0  0  0  0  0  0  0  0  0
   -1.2216    1.9558   10.2520 H   0  0  0  0  0  0  0  0  0  0  0  0
    0.0215    0.9917   11.0914 H   0  0  0  0  0  0  0  0  0  0  0  0
   -1.5995    0.3039   10.8044 H   0  0  0  0  0  0  0  0  0  0  0  0
   -3.2202   -2.1533    9.0368 H   0  0  0  0  0  0  0  0  0  0  0  0
   -4.2417   -1.3788    7.7953 H   0  0  0  0  0  0  0  0  0  0  0  0
   -3.7009   -0.4501    9.2285 H   0  0  0  0  0  0  0  0  0  0  0  0
    1.3159    5.9086    3.3719 H   0  0  0  0  0  0  0  0  0  0  0  0
   -0.1647    5.2768    2.6500 H   0  0  0  0  0  0  0  0  0  0  0  0
    1.4088    4.6834    2.1087 H   0  0  0  0  0  0  0  0  0  0  0  0
    1.8120    3.6435    4.3169 H   0  0  0  0  0  0  0  0  0  0  0  0
    0.2864    4.2875    4.9240 H   0  0  0  0  0  0  0  0  0  0  0  0
   -0.9610    2.9217    3.2458 H   0  0  0  0  0  0  0  0  0  0  0  0
    0.5365    2.3148    2.5996 H   0  0  0  0  0  0  0  0  0  0  0  0
  1 46  1  0  0  0  0
  1 77  1  0  0  0  0
  1 78  1  0  0  0  0
  2 44  1  0  0  0  0
  2 59  1  0  0  0  0
  2 60  1  0  0  0  0
  3  4  2  0  0  0  0
  3 38  1  0  0  0  0
  4  5  1  0  0  0  0
  4 25  1  0  0  0  0
  5  6  2  0  0  0  0
  5  9  1  0  0  0  0
  6  7  1  0  0  0  0
  7  8  2  0  0  0  0
  7 39  1  0  0  0  0
  8  3  1  0  0  0  0
  8 26  1  0  0  0  0
  9 10  1  0  0  0  0
 10 11  2  0  0  0  0
 11 12  1  0  0  0  0
 12  1  1  0  0  0  0
 12  6  1  0  0  0  0
 13 14  2  0  0  0  0
 13 20  1  0  0  0  0
 13  9  1  0  0  0  0
 14 15  1  0  0  0  0
 15  2  1  0  0  0  0
 15 16  1  0  0  0  0
 16 10  1  0  0  0  0
 16 17  2  0  0  0  0
 17 18  1  0  0  0  0
 17 42  1  0  0  0  0
 18 19  2  0  0  0  0
 18 28  1  0  0  0  0
 19 11  1  0  0  0  0
 19 43  1  0  0  0  0
 20 21  2  0  0  0  0
 21 22  1  0  0  0  0
 21 40  1  0  0  0  0
 22 23  2  0  0  0  0
 22 27  1  0  0  0  0
 23 14  1  0  0  0  0
 23 41  1  0  0  0  0
 24 48  1  0  0  0  0
 24 20  1  0  0  0  0
 25 49  1  0  0  0  0
 26 32  2  0  0  0  0
 26 33  1  0  0  0  0
 27 35  2  0  0  0  0
 27 36  1  0  0  0  0
 28 29  2  0  0  0  0
 28 30  1  0  0  0  0
 30 31  1  0  0  0  0
 31 56  1  0  0  0  0
 31 57  1  0  0  0  0
 31 58  1  0  0  0  0
 33 34  1  0  0  0  0
 34 50  1  0  0  0  0
 34 51  1  0  0  0  0
 34 52  1  0  0  0  0
 36 37  1  0  0  0  0
 37 53  1  0  0  0  0
 37 54  1  0  0  0  0
 37 55  1  0  0  0  0
 44 45  1  0  0  0  0
 44 61  1  0  0  0  0
 44 62  1  0  0  0  0
 45 63  1  0  0  0  0
 45 64  1  0  0  0  0
 45 65  1  0  0  0  0
 46 47  1  0  0  0  0
 46 75  1  0  0  0  0
 46 76  1  0  0  0  0
 47 72  1  0  0  0  0
 47 73  1  0  0  0  0
 47 74  1  0  0  0  0
 48 66  1  0  0  0  0
 48 67  1  0  0  0  0
 48 68  1  0  0  0  0
 49 69  1  0  0  0  0
 49 70  1  0  0  0  0
 49 71  1  0  0  0  0
 79124  1  0  0  0  0
 79155  1  0  0  0  0
 79156  1  0  0  0  0
 80122  1  0  0  0  0
 80137  1  0  0  0  0
 80138  1  0  0  0  0
 81 82  2  0  0  0  0
 81116  1  0  0  0  0
 82 83  1  0  0  0  0
 82103  1  0  0  0  0
 83 84  2  0  0  0  0
 83 87  1  0  0  0  0
 84 85  1  0  0  0  0
 85 86  2  0  0  0  0
 85117  1  0  0  0  0
 86 81  1  0  0  0  0
 86104  1  0  0  0  0
 87 88  1  0  0  0  0
 88 89  2  0  0  0  0
 89 90  1  0  0  0  0
 90 79  1  0  0  0  0
 90 84  1  0  0  0  0
 91 92  2  0  0  0  0
 91 98  1  0  0  0  0
 91 87  1  0  0  0  0
 92 93  1  0  0  0  0
 93 80  1  0  0  0  0
 93 94  1  0  0  0  0
 94 88  1  0  0  0  0
 94 95  2  0  0  0  0
 95 96  1  0  0  0  0
 95120  1  0  0  0  0
 96 97  2  0  0  0  0
 96106  1  0  0  0  0
 97 89  1  0  0  0  0
 97121  1  0  0  0  0
 98 99  2  0  0  0  0
 99100  1  0  0  0  0
 99118  1  0  0  0  0
100101  2  0  0  0  0
100105  1  0  0  0  0
101 92  1  0  0  0  0
101119  1  0  0  0  0
102126  1  0  0  0  0
102 98  1  0  0  0  0
103127  1  0  0  0  0
104110  2  0  0  0  0
104111  1  0  0  0  0
105113  2  0  0  0  0
105114  1  0  0  0  0
106107  2  0  0  0  0
106108  1  0  0  0  0
108109  1  0  0  0  0
109134  1  0  0  0  0
109135  1  0  0  0  0
109136  1  0  0  0  0
111112  1  0  0  0  0
112128  1  0  0  0  0
112129  1  0  0  0  0
112130  1  0  0  0  0
114115  1  0  0  0  0
115131  1  0  0  0  0
115132  1  0  0  0  0
115133  1  0  0  0  0
122123  1  0  0  0  0
122139  1  0  0  0  0
122140  1  0  0  0  0
123141  1  0  0  0  0
123142  1  0  0  0  0
123143  1  0  0  0  0
124125  1  0  0  0  0
124153  1  0  0  0  0
124154  1  0  0  0  0
125150  1  0  0  0  0
125151  1  0  0  0  0
125152  1  0  0  0  0
126144  1  0  0  0  0
126145  1  0  0  0  0
126146  1  0  0  0  0
127147  1  0  0  0  0
127148  1  0  0  0  0
127149  1  0  0  0  0
M  END
