 xtb: 6.7.1 (edcfbbe)
          12022412413D

 78 82  0     0  0            999 V2000
    0.8804    3.3549   -3.1737 C   0  0  0  0  0  0  0  0  0  0  0  0
    2.5389   -3.0350   -0.2778 C   0  0  0  0  0  0  0  0  0  0  0  0
   -3.6809    1.4795   -1.8795 C   0  0  0  0  0  0  0  0  0  0  0  0
   -2.7392    0.5548   -1.4832 C   0  0  0  0  0  0  0  0  0  0  0  0
   -1.3554    0.8174   -1.6627 C   0  0  0  0  0  0  0  0  0  0  0  0
   -0.9813    1.9154   -2.4734 C   0  0  0  0  0  0  0  0  0  0  0  0
   -1.9363    2.8200   -2.8909 C   0  0  0  0  0  0  0  0  0  0  0  0
   -3.2873    2.6435   -2.5487 C   0  0  0  0  0  0  0  0  0  0  0  0
   -0.3295   -0.0181   -1.1192 C   0  0  0  0  0  0  0  0  0  0  0  0
    0.8952   -0.0791   -1.8393 C   0  0  0  0  0  0  0  0  0  0  0  0
    1.2057    0.9410   -2.7659 C   0  0  0  0  0  0  0  0  0  0  0  0
    0.3655    2.0577   -2.8088 N   0  0  0  0  0  0  0  0  0  0  0  0
   -0.4703   -0.8434    0.0252 C   0  0  0  0  0  0  0  0  0  0  0  0
    0.3940   -1.9625    0.1876 C   0  0  0  0  0  0  0  0  0  0  0  0
    1.5140   -2.0853   -0.6413 N   0  0  0  0  0  0  0  0  0  0  0  0
    1.7896   -1.1562   -1.6451 C   0  0  0  0  0  0  0  0  0  0  0  0
    2.8987   -1.2619   -2.4643 C   0  0  0  0  0  0  0  0  0  0  0  0
    3.1665   -0.2886   -3.4387 C   0  0  0  0  0  0  0  0  0  0  0  0
    2.3173    0.8180   -3.5729 C   0  0  0  0  0  0  0  0  0  0  0  0
   -1.4043   -0.5838    1.0625 C   0  0  0  0  0  0  0  0  0  0  0  0
   -1.6508   -1.5148    2.0436 C   0  0  0  0  0  0  0  0  0  0  0  0
   -0.9582   -2.7277    2.0570 C   0  0  0  0  0  0  0  0  0  0  0  0
    0.0983   -2.9138    1.1403 C   0  0  0  0  0  0  0  0  0  0  0  0
   -2.0844    0.6298    1.1448 O   0  0  0  0  0  0  0  0  0  0  0  0
   -3.0566   -0.6770   -0.9762 O   0  0  0  0  0  0  0  0  0  0  0  0
   -4.2367    3.6593   -2.9508 C   0  0  0  0  0  0  0  0  0  0  0  0
   -1.3026   -3.7246    3.0420 C   0  0  0  0  0  0  0  0  0  0  0  0
    4.3122   -0.3882   -4.3168 C   0  0  0  0  0  0  0  0  0  0  0  0
    4.6331    0.4172   -5.1743 O   0  0  0  0  0  0  0  0  0  0  0  0
    5.0629   -1.5187   -4.1005 O   0  0  0  0  0  0  0  0  0  0  0  0
    6.1784   -1.6668   -4.9482 C   0  0  0  0  0  0  0  0  0  0  0  0
   -3.9688    4.6901   -3.5444 O   0  0  0  0  0  0  0  0  0  0  0  0
   -5.5265    3.3524   -2.5954 O   0  0  0  0  0  0  0  0  0  0  0  0
   -6.5240    4.2842   -2.9500 C   0  0  0  0  0  0  0  0  0  0  0  0
   -2.1894   -3.6365    3.8746 O   0  0  0  0  0  0  0  0  0  0  0  0
   -0.5018   -4.8436    2.9680 O   0  0  0  0  0  0  0  0  0  0  0  0
   -0.7739   -5.8803    3.8835 C   0  0  0  0  0  0  0  0  0  0  0  0
   -4.7306    1.3211   -1.6978 H   0  0  0  0  0  0  0  0  0  0  0  0
   -1.6899    3.6923   -3.4721 H   0  0  0  0  0  0  0  0  0  0  0  0
   -2.3910   -1.3157    2.8033 H   0  0  0  0  0  0  0  0  0  0  0  0
    0.6375   -3.8420    1.2065 H   0  0  0  0  0  0  0  0  0  0  0  0
    3.5789   -2.0929   -2.4068 H   0  0  0  0  0  0  0  0  0  0  0  0
    2.5646    1.5431   -4.3316 H   0  0  0  0  0  0  0  0  0  0  0  0
    2.3988   -4.3660   -1.0245 C   0  0  0  0  0  0  0  0  0  0  0  0
    3.4680   -5.3606   -0.5924 C   0  0  0  0  0  0  0  0  0  0  0  0
    0.7857    4.3397   -2.0004 C   0  0  0  0  0  0  0  0  0  0  0  0
    1.3218    5.7117   -2.3861 C   0  0  0  0  0  0  0  0  0  0  0  0
   -1.2573    1.7457    1.3606 C   0  0  0  0  0  0  0  0  0  0  0  0
   -4.3408   -0.8687   -0.4506 C   0  0  0  0  0  0  0  0  0  0  0  0
   -7.2795    3.7765   -3.5536 H   0  0  0  0  0  0  0  0  0  0  0  0
   -6.0755    5.1015   -3.5216 H   0  0  0  0  0  0  0  0  0  0  0  0
   -6.9845    4.6780   -2.0405 H   0  0  0  0  0  0  0  0  0  0  0  0
    0.1243   -6.0754    4.4743 H   0  0  0  0  0  0  0  0  0  0  0  0
   -1.0519   -6.7808    3.3303 H   0  0  0  0  0  0  0  0  0  0  0  0
   -1.5949   -5.5808    4.5412 H   0  0  0  0  0  0  0  0  0  0  0  0
    6.7403   -2.5206   -4.5731 H   0  0  0  0  0  0  0  0  0  0  0  0
    6.7968   -0.7648   -4.9329 H   0  0  0  0  0  0  0  0  0  0  0  0
    5.8589   -1.8478   -5.9789 H   0  0  0  0  0  0  0  0  0  0  0  0
    2.4898   -3.2106    0.8008 H   0  0  0  0  0  0  0  0  0  0  0  0
    3.5203   -2.5973   -0.4852 H   0  0  0  0  0  0  0  0  0  0  0  0
    2.4740   -4.1810   -2.0976 H   0  0  0  0  0  0  0  0  0  0  0  0
    1.4073   -4.7782   -0.8297 H   0  0  0  0  0  0  0  0  0  0  0  0
    4.4615   -4.9598   -0.7846 H   0  0  0  0  0  0  0  0  0  0  0  0
    3.3644   -6.2970   -1.1365 H   0  0  0  0  0  0  0  0  0  0  0  0
    3.3839   -5.5709    0.4722 H   0  0  0  0  0  0  0  0  0  0  0  0
   -1.9072    2.6198    1.3256 H   0  0  0  0  0  0  0  0  0  0  0  0
   -0.4857    1.8442    0.5909 H   0  0  0  0  0  0  0  0  0  0  0  0
   -0.7717    1.6893    2.3445 H   0  0  0  0  0  0  0  0  0  0  0  0
   -4.3130   -1.8373    0.0482 H   0  0  0  0  0  0  0  0  0  0  0  0
   -5.1057   -0.8872   -1.2376 H   0  0  0  0  0  0  0  0  0  0  0  0
   -4.5871   -0.0939    0.2813 H   0  0  0  0  0  0  0  0  0  0  0  0
    1.2678    6.3953   -1.5416 H   0  0  0  0  0  0  0  0  0  0  0  0
    0.7372    6.1297   -3.2027 H   0  0  0  0  0  0  0  0  0  0  0  0
    2.3595    5.6418   -2.7074 H   0  0  0  0  0  0  0  0  0  0  0  0
    1.3592    3.9374   -1.1619 H   0  0  0  0  0  0  0  0  0  0  0  0
   -0.2541    4.4262   -1.6826 H   0  0  0  0  0  0  0  0  0  0  0  0
    0.3480    3.7585   -4.0429 H   0  0  0  0  0  0  0  0  0  0  0  0
    1.9297    3.2464   -3.4467 H   0  0  0  0  0  0  0  0  0  0  0  0
  3  4  4  0  0  0  0
  4  5  4  0  0  0  0
  5  6  4  0  0  0  0
  6  7  4  0  0  0  0
  3  8  4  0  0  0  0
  7  8  4  0  0  0  0
  5  9  1  0  0  0  0
  9 10  4  0  0  0  0
 10 11  4  0  0  0  0
  1 12  1  0  0  0  0
  6 12  1  0  0  0  0
 11 12  1  0  0  0  0
  9 13  4  0  0  0  0
 13 14  4  0  0  0  0
  2 15  1  0  0  0  0
 14 15  1  0  0  0  0
 10 16  4  0  0  0  0
 15 16  1  0  0  0  0
 16 17  4  0  0  0  0
 17 18  4  0  0  0  0
 11 19  4  0  0  0  0
 18 19  4  0  0  0  0
 13 20  4  0  0  0  0
 20 21  4  0  0  0  0
 21 22  4  0  0  0  0
 14 23  4  0  0  0  0
 22 23  4  0  0  0  0
 20 24  1  0  0  0  0
  4 25  1  0  0  0  0
  8 26  1  0  0  0  0
 22 27  1  0  0  0  0
 18 28  1  0  0  0  0
 28 29  2  0  0  0  0
 28 30  1  0  0  0  0
 30 31  1  0  0  0  0
 26 32  2  0  0  0  0
 26 33  1  0  0  0  0
 33 34  1  0  0  0  0
 27 35  2  0  0  0  0
 27 36  1  0  0  0  0
 36 37  1  0  0  0  0
  3 38  1  0  0  0  0
  7 39  1  0  0  0  0
 21 40  1  0  0  0  0
 23 41  1  0  0  0  0
 17 42  1  0  0  0  0
 19 43  1  0  0  0  0
  2 44  1  0  0  0  0
 44 45  1  0  0  0  0
  1 46  1  0  0  0  0
 46 47  1  0  0  0  0
 24 48  1  0  0  0  0
 25 49  1  0  0  0  0
 34 50  1  0  0  0  0
 34 51  1  0  0  0  0
 34 52  1  0  0  0  0
 37 53  1  0  0  0  0
 37 54  1  0  0  0  0
 37 55  1  0  0  0  0
 31 56  1  0  0  0  0
 31 57  1  0  0  0  0
 31 58  1  0  0  0  0
  2 59  1  0  0  0  0
  2 60  1  0  0  0  0
 44 61  1  0  0  0  0
 44 62  1  0  0  0  0
 45 63  1  0  0  0  0
 45 64  1  0  0  0  0
 45 65  1  0  0  0  0
 48 66  1  0  0  0  0
 48 67  1  0  0  0  0
 48 68  1  0  0  0  0
 49 69  1  0  0  0  0
 49 70  1  0  0  0  0
 49 71  1  0  0  0  0
 47 72  1  0  0  0  0
 47 73  1  0  0  0  0
 47 74  1  0  0  0  0
 46 75  1  0  0  0  0
 46 76  1  0  0  0  0
  1 77  1  0  0  0  0
  1 78  1  0  0  0  0
M  CHG  1   1  -1
M  END
