 xtb: 6.7.1 (43a0e4e5b5d943adc66b4aa6563d39c792f6153b)
          11252411273D

 78 82  0     0  0            999 V2000
    0.8800    3.3549   -3.1738 C   0  0  0  0  0  0  0  0  0  0  0  0
    2.5390   -3.0351   -0.2785 C   0  0  0  0  0  0  0  0  0  0  0  0
   -3.6812    1.4795   -1.8795 C   0  0  0  0  0  0  0  0  0  0  0  0
   -2.7395    0.5549   -1.4829 C   0  0  0  0  0  0  0  0  0  0  0  0
   -1.3557    0.8173   -1.6626 C   0  0  0  0  0  0  0  0  0  0  0  0
   -0.9816    1.9153   -2.4734 C   0  0  0  0  0  0  0  0  0  0  0  0
   -1.9367    2.8197   -2.8912 C   0  0  0  0  0  0  0  0  0  0  0  0
   -3.2876    2.6432   -2.5492 C   0  0  0  0  0  0  0  0  0  0  0  0
   -0.3298   -0.0182   -1.1191 C   0  0  0  0  0  0  0  0  0  0  0  0
    0.8950   -0.0790   -1.8394 C   0  0  0  0  0  0  0  0  0  0  0  0
    1.2054    0.9410   -2.7660 C   0  0  0  0  0  0  0  0  0  0  0  0
    0.3652    2.0577   -2.8086 N   0  0  0  0  0  0  0  0  0  0  0  0
   -0.4703   -0.8436    0.0252 C   0  0  0  0  0  0  0  0  0  0  0  0
    0.3940   -1.9628    0.1873 C   0  0  0  0  0  0  0  0  0  0  0  0
    1.5141   -2.0853   -0.6416 N   0  0  0  0  0  0  0  0  0  0  0  0
    1.7894   -1.1561   -1.6452 C   0  0  0  0  0  0  0  0  0  0  0  0
    2.8987   -1.2615   -2.4642 C   0  0  0  0  0  0  0  0  0  0  0  0
    3.1667   -0.2880   -3.4384 C   0  0  0  0  0  0  0  0  0  0  0  0
    2.3172    0.8183   -3.5728 C   0  0  0  0  0  0  0  0  0  0  0  0
   -1.4040   -0.5843    1.0627 C   0  0  0  0  0  0  0  0  0  0  0  0
   -1.6504   -1.5154    2.0437 C   0  0  0  0  0  0  0  0  0  0  0  0
   -0.9577   -2.7284    2.0568 C   0  0  0  0  0  0  0  0  0  0  0  0
    0.0985   -2.9143    1.1399 C   0  0  0  0  0  0  0  0  0  0  0  0
   -2.0841    0.6294    1.1456 O   0  0  0  0  0  0  0  0  0  0  0  0
   -3.0570   -0.6767   -0.9754 O   0  0  0  0  0  0  0  0  0  0  0  0
   -4.2369    3.6589   -2.9520 C   0  0  0  0  0  0  0  0  0  0  0  0
   -1.3020   -3.7250    3.0422 C   0  0  0  0  0  0  0  0  0  0  0  0
    4.3131   -0.3873   -4.3156 C   0  0  0  0  0  0  0  0  0  0  0  0
    4.6343    0.4180   -5.1732 O   0  0  0  0  0  0  0  0  0  0  0  0
    5.0638   -1.5176   -4.0986 O   0  0  0  0  0  0  0  0  0  0  0  0
    6.1789   -1.6671   -4.9464 C   0  0  0  0  0  0  0  0  0  0  0  0
   -3.9689    4.6894   -3.5461 O   0  0  0  0  0  0  0  0  0  0  0  0
   -5.5268    3.3527   -2.5961 O   0  0  0  0  0  0  0  0  0  0  0  0
   -6.5239    4.2849   -2.9505 C   0  0  0  0  0  0  0  0  0  0  0  0
   -2.1898   -3.6370    3.8738 O   0  0  0  0  0  0  0  0  0  0  0  0
   -0.5010   -4.8439    2.9690 O   0  0  0  0  0  0  0  0  0  0  0  0
   -0.7738   -5.8804    3.8848 C   0  0  0  0  0  0  0  0  0  0  0  0
   -4.7310    1.3211   -1.6977 H   0  0  0  0  0  0  0  0  0  0  0  0
   -1.6901    3.6918   -3.4727 H   0  0  0  0  0  0  0  0  0  0  0  0
   -2.3902   -1.3165    2.8038 H   0  0  0  0  0  0  0  0  0  0  0  0
    0.6378   -3.8426    1.2059 H   0  0  0  0  0  0  0  0  0  0  0  0
    3.5790   -2.0924   -2.4067 H   0  0  0  0  0  0  0  0  0  0  0  0
    2.5644    1.5436   -4.3314 H   0  0  0  0  0  0  0  0  0  0  0  0
    2.3987   -4.3660   -1.0255 C   0  0  0  0  0  0  0  0  0  0  0  0
    3.4678   -5.3610   -0.5940 C   0  0  0  0  0  0  0  0  0  0  0  0
    0.7857    4.3398   -2.0006 C   0  0  0  0  0  0  0  0  0  0  0  0
    1.3212    5.7119   -2.3868 C   0  0  0  0  0  0  0  0  0  0  0  0
   -1.2570    1.7453    1.3608 C   0  0  0  0  0  0  0  0  0  0  0  0
   -4.3411   -0.8681   -0.4495 C   0  0  0  0  0  0  0  0  0  0  0  0
   -7.2801    3.7776   -3.5536 H   0  0  0  0  0  0  0  0  0  0  0  0
   -6.0751    5.1017   -3.5228 H   0  0  0  0  0  0  0  0  0  0  0  0
   -6.9836    4.6796   -2.0410 H   0  0  0  0  0  0  0  0  0  0  0  0
    0.1243   -6.0757    4.4757 H   0  0  0  0  0  0  0  0  0  0  0  0
   -1.0521   -6.7809    3.3318 H   0  0  0  0  0  0  0  0  0  0  0  0
   -1.5947   -5.5803    4.5422 H   0  0  0  0  0  0  0  0  0  0  0  0
    6.7409   -2.5203   -4.5704 H   0  0  0  0  0  0  0  0  0  0  0  0
    6.7972   -0.7653   -4.9332 H   0  0  0  0  0  0  0  0  0  0  0  0
    5.8588   -1.8497   -5.9767 H   0  0  0  0  0  0  0  0  0  0  0  0
    2.4902   -3.2108    0.8001 H   0  0  0  0  0  0  0  0  0  0  0  0
    3.5203   -2.5974   -0.4861 H   0  0  0  0  0  0  0  0  0  0  0  0
    2.4736   -4.1806   -2.0985 H   0  0  0  0  0  0  0  0  0  0  0  0
    1.4072   -4.7781   -0.8304 H   0  0  0  0  0  0  0  0  0  0  0  0
    4.4613   -4.9597   -0.7855 H   0  0  0  0  0  0  0  0  0  0  0  0
    3.3645   -6.2968   -1.1391 H   0  0  0  0  0  0  0  0  0  0  0  0
    3.3834   -5.5723    0.4703 H   0  0  0  0  0  0  0  0  0  0  0  0
   -1.9072    2.6192    1.3268 H   0  0  0  0  0  0  0  0  0  0  0  0
   -0.4863    1.8443    0.5901 H   0  0  0  0  0  0  0  0  0  0  0  0
   -0.7701    1.6887    2.3442 H   0  0  0  0  0  0  0  0  0  0  0  0
   -4.3138   -1.8372    0.0483 H   0  0  0  0  0  0  0  0  0  0  0  0
   -5.1064   -0.8853   -1.2361 H   0  0  0  0  0  0  0  0  0  0  0  0
   -4.5866   -0.0938    0.2833 H   0  0  0  0  0  0  0  0  0  0  0  0
    1.2677    6.3956   -1.5424 H   0  0  0  0  0  0  0  0  0  0  0  0
    0.7359    6.1297   -3.2031 H   0  0  0  0  0  0  0  0  0  0  0  0
    2.3588    5.6422   -2.7089 H   0  0  0  0  0  0  0  0  0  0  0  0
    1.3599    3.9378   -1.1625 H   0  0  0  0  0  0  0  0  0  0  0  0
   -0.2539    4.4261   -1.6821 H   0  0  0  0  0  0  0  0  0  0  0  0
    0.3473    3.7585   -4.0429 H   0  0  0  0  0  0  0  0  0  0  0  0
    1.9291    3.2465   -3.4472 H   0  0  0  0  0  0  0  0  0  0  0  0
  3  4  4  0  0  0  0
  4  5  4  0  0  0  0
  5  6  4  0  0  0  0
  6  7  4  0  0  0  0
  3  8  4  0  0  0  0
  7  8  4  0  0  0  0
  5  9  1  0  0  0  0
  9 10  4  0  0  0  0
 10 11  4  0  0  0  0
  1 12  1  0  0  0  0
  6 12  1  0  0  0  0
 11 12  1  0  0  0  0
  9 13  4  0  0  0  0
 13 14  4  0  0  0  0
  2 15  1  0  0  0  0
 14 15  1  0  0  0  0
 10 16  4  0  0  0  0
 15 16  1  0  0  0  0
 16 17  4  0  0  0  0
 17 18  4  0  0  0  0
 11 19  4  0  0  0  0
 18 19  4  0  0  0  0
 13 20  4  0  0  0  0
 20 21  4  0  0  0  0
 21 22  4  0  0  0  0
 14 23  4  0  0  0  0
 22 23  4  0  0  0  0
 20 24  1  0  0  0  0
  4 25  1  0  0  0  0
  8 26  1  0  0  0  0
 22 27  1  0  0  0  0
 18 28  1  0  0  0  0
 28 29  2  0  0  0  0
 28 30  1  0  0  0  0
 30 31  1  0  0  0  0
 26 32  2  0  0  0  0
 26 33  1  0  0  0  0
 33 34  1  0  0  0  0
 27 35  2  0  0  0  0
 27 36  1  0  0  0  0
 36 37  1  0  0  0  0
  3 38  1  0  0  0  0
  7 39  1  0  0  0  0
 21 40  1  0  0  0  0
 23 41  1  0  0  0  0
 17 42  1  0  0  0  0
 19 43  1  0  0  0  0
  2 44  1  0  0  0  0
 44 45  1  0  0  0  0
  1 46  1  0  0  0  0
 46 47  1  0  0  0  0
 24 48  1  0  0  0  0
 25 49  1  0  0  0  0
 34 50  1  0  0  0  0
 34 51  1  0  0  0  0
 34 52  1  0  0  0  0
 37 53  1  0  0  0  0
 37 54  1  0  0  0  0
 37 55  1  0  0  0  0
 31 56  1  0  0  0  0
 31 57  1  0  0  0  0
 31 58  1  0  0  0  0
  2 59  1  0  0  0  0
  2 60  1  0  0  0  0
 44 61  1  0  0  0  0
 44 62  1  0  0  0  0
 45 63  1  0  0  0  0
 45 64  1  0  0  0  0
 45 65  1  0  0  0  0
 48 66  1  0  0  0  0
 48 67  1  0  0  0  0
 48 68  1  0  0  0  0
 49 69  1  0  0  0  0
 49 70  1  0  0  0  0
 49 71  1  0  0  0  0
 47 72  1  0  0  0  0
 47 73  1  0  0  0  0
 47 74  1  0  0  0  0
 46 75  1  0  0  0  0
 46 76  1  0  0  0  0
  1 77  1  0  0  0  0
  1 78  1  0  0  0  0
M  CHG  1   1  -1
M  END
