
 OpenBabel10282416293D

 78 82  0  0  0  0  0  0  0  0999 V2000
    0.8585    3.5742   -3.9248 C   0  0  0  0  0  0  0  0  0  0  0  0
    2.7932   -3.5676   -0.2320 C   0  0  0  0  0  0  0  0  0  0  0  0
   -4.0669    1.4212   -2.1728 C   0  0  0  0  0  0  0  0  0  0  0  0
   -2.9764    0.4993   -1.5682 C   0  0  0  0  0  0  0  0  0  0  0  0
   -1.4768    0.8389   -1.7758 C   0  0  0  0  0  0  0  0  0  0  0  0
   -1.0722    2.0020   -2.7196 C   0  0  0  0  0  0  0  0  0  0  0  0
   -2.1622    2.9341   -3.3085 C   0  0  0  0  0  0  0  0  0  0  0  0
   -3.6588    2.6604   -3.0110 C   0  0  0  0  0  0  0  0  0  0  0  0
   -0.2767   -0.0470   -1.0879 C   0  0  0  0  0  0  0  0  0  0  0  0
    1.2113   -0.0048   -1.7758 C   0  0  0  0  0  0  0  0  0  0  0  0
    1.5494    1.1324   -2.7729 C   0  0  0  0  0  0  0  0  0  0  0  0
    0.4498    2.2269   -3.1211 N   0  0  0  0  0  0  0  0  0  0  0  0
   -0.4640   -0.9816    0.2488 C   0  0  0  0  0  0  0  0  0  0  0  0
    0.5584   -2.1177    0.5107 C   0  0  0  0  0  0  0  0  0  0  0  0
    1.8591   -2.2523   -0.3929 N   0  0  0  0  0  0  0  0  0  0  0  0
    2.2485   -1.0999   -1.4169 C   0  0  0  0  0  0  0  0  0  0  0  0
    3.6572   -1.0455   -2.0637 C   0  0  0  0  0  0  0  0  0  0  0  0
    4.0090    0.0926   -3.0567 C   0  0  0  0  0  0  0  0  0  0  0  0
    2.9597    1.1760   -3.4166 C   0  0  0  0  0  0  0  0  0  0  0  0
   -1.6047   -0.7130    1.2636 C   0  0  0  0  0  0  0  0  0  0  0  0
   -1.8474   -1.7050    2.4297 C   0  0  0  0  0  0  0  0  0  0  0  0
   -0.9042   -2.9214    2.6155 C   0  0  0  0  0  0  0  0  0  0  0  0
    0.3188   -3.1072    1.6804 C   0  0  0  0  0  0  0  0  0  0  0  0
   -2.4739    0.5739    1.1296 O   0  0  0  0  0  0  0  0  0  0  0  0
   -3.4100   -0.7902   -0.8067 O   0  0  0  0  0  0  0  0  0  0  0  0
   -4.8152    3.6732   -3.5887 C   0  0  0  0  0  0  0  0  0  0  0  0
   -1.1884   -4.0144    3.8075 C   0  0  0  0  0  0  0  0  0  0  0  0
    5.5056    0.1515   -3.7319 C   0  0  0  0  0  0  0  0  0  0  0  0
    5.8326    1.1973   -4.6660 O   0  0  0  0  0  0  0  0  0  0  0  0
    6.2151   -0.5947   -3.4805 O   0  0  0  0  0  0  0  0  0  0  0  0
    6.4353   -1.4255   -4.4225 C   0  0  0  0  0  0  0  0  0  0  0  0
   -4.4426    4.8287   -4.3629 O   0  0  0  0  0  0  0  0  0  0  0  0
   -6.3205    3.3884   -3.2846 O   0  0  0  0  0  0  0  0  0  0  0  0
   -6.3831    3.8964   -2.2463 C   0  0  0  0  0  0  0  0  0  0  0  0
   -2.3353   -3.8651    4.6660 O   0  0  0  0  0  0  0  0  0  0  0  0
   -0.5157   -4.8004    3.9796 O   0  0  0  0  0  0  0  0  0  0  0  0
   -0.5729   -5.6394    2.9700 C   0  0  0  0  0  0  0  0  0  0  0  0
   -5.2396    1.1745   -1.9895 H   0  0  0  0  0  0  0  0  0  0  0  0
   -1.8504    3.8717   -4.0111 H   0  0  0  0  0  0  0  0  0  0  0  0
   -2.7688   -1.5268    3.1973 H   0  0  0  0  0  0  0  0  0  0  0  0
    1.0889   -4.0250    1.8687 H   0  0  0  0  0  0  0  0  0  0  0  0
    4.4949   -1.8807   -1.7976 H   0  0  0  0  0  0  0  0  0  0  0  0
    3.2572    2.0451   -4.2070 H   0  0  0  0  0  0  0  0  0  0  0  0
    1.8966   -4.9495   -0.6630 C   0  0  0  0  0  0  0  0  0  0  0  0
    2.8181   -6.3435   -0.3417 C   0  0  0  0  0  0  0  0  0  0  0  0
    0.5270    4.9363   -2.9597 C   0  0  0  0  0  0  0  0  0  0  0  0
    0.9346    6.3435   -3.8258 C   0  0  0  0  0  0  0  0  0  0  0  0
   -1.4258    1.3814    1.9713 C   0  0  0  0  0  0  0  0  0  0  0  0
   -4.4249   -0.4504   -0.3421 C   0  0  0  0  0  0  0  0  0  0  0  0
   -7.3772    3.8012   -1.8620 H   0  0  0  0  0  0  0  0  0  0  0  0
   -6.1349    4.9329   -2.3407 H   0  0  0  0  0  0  0  0  0  0  0  0
   -5.6951    3.4245   -1.5763 H   0  0  0  0  0  0  0  0  0  0  0  0
    0.1107   -6.4454    3.1369 H   0  0  0  0  0  0  0  0  0  0  0  0
   -0.3094   -5.1293    2.0671 H   0  0  0  0  0  0  0  0  0  0  0  0
   -1.5667   -6.0265    2.8839 H   0  0  0  0  0  0  0  0  0  0  0  0
    7.1575   -2.1464   -4.1007 H   0  0  0  0  0  0  0  0  0  0  0  0
    6.8094   -0.9035   -5.2783 H   0  0  0  0  0  0  0  0  0  0  0  0
    5.5238   -1.9238   -4.6790 H   0  0  0  0  0  0  0  0  0  0  0  0
    3.1170   -3.6541    0.7841 H   0  0  0  0  0  0  0  0  0  0  0  0
    3.6478   -3.4810   -0.8700 H   0  0  0  0  0  0  0  0  0  0  0  0
    1.6599   -4.9106   -1.7058 H   0  0  0  0  0  0  0  0  0  0  0  0
    0.9913   -4.9802   -0.0936 H   0  0  0  0  0  0  0  0  0  0  0  0
    3.7232   -6.3120   -0.9114 H   0  0  0  0  0  0  0  0  0  0  0  0
    2.2561   -7.2128   -0.6127 H   0  0  0  0  0  0  0  0  0  0  0  0
    3.0543   -6.3824    0.7012 H   0  0  0  0  0  0  0  0  0  0  0  0
   -1.7542    2.3947    2.0725 H   0  0  0  0  0  0  0  0  0  0  0  0
   -0.4782    1.3615    1.4748 H   0  0  0  0  0  0  0  0  0  0  0  0
   -1.3299    0.9390    2.9408 H   0  0  0  0  0  0  0  0  0  0  0  0
   -4.8463   -1.2560    0.2223 H   0  0  0  0  0  0  0  0  0  0  0  0
   -5.0998   -0.1718   -1.1243 H   0  0  0  0  0  0  0  0  0  0  0  0
   -4.2596    0.3880    0.3018 H   0  0  0  0  0  0  0  0  0  0  0  0
    0.7287    7.2045   -3.2247 H   0  0  0  0  0  0  0  0  0  0  0  0
    0.3559    6.3894   -4.7246 H   0  0  0  0  0  0  0  0  0  0  0  0
    1.9755    6.3215   -4.0725 H   0  0  0  0  0  0  0  0  0  0  0  0
    1.1056    4.8883   -2.0609 H   0  0  0  0  0  0  0  0  0  0  0  0
   -0.5128    4.9559   -2.7081 H   0  0  0  0  0  0  0  0  0  0  0  0
    0.2930    3.6337   -4.8312 H   0  0  0  0  0  0  0  0  0  0  0  0
    1.9029    3.5476   -4.1557 H   0  0  0  0  0  0  0  0  0  0  0  0
  1 46  1  0  0  0  0
  1 77  1  0  0  0  0
  1 78  1  0  0  0  0
  2 44  1  0  0  0  0
  2 59  1  0  0  0  0
  2 60  1  0  0  0  0
  3  4  2  0  0  0  0
  3 38  1  0  0  0  0
  4  5  1  0  0  0  0
  4 25  1  0  0  0  0
  5  6  2  0  0  0  0
  5  9  1  0  0  0  0
  6  7  1  0  0  0  0
  7  8  2  0  0  0  0
  7 39  1  0  0  0  0
  8  3  1  0  0  0  0
  8 26  1  0  0  0  0
  9 10  1  0  0  0  0
 10 11  2  0  0  0  0
 11 12  1  0  0  0  0
 12  1  1  0  0  0  0
 12  6  1  0  0  0  0
 13 14  2  0  0  0  0
 13 20  1  0  0  0  0
 13  9  1  0  0  0  0
 14 15  1  0  0  0  0
 15  2  1  0  0  0  0
 15 16  1  0  0  0  0
 16 10  1  0  0  0  0
 16 17  2  0  0  0  0
 17 18  1  0  0  0  0
 17 42  1  0  0  0  0
 18 19  2  0  0  0  0
 18 28  1  0  0  0  0
 19 11  1  0  0  0  0
 19 43  1  0  0  0  0
 20 21  2  0  0  0  0
 21 22  1  0  0  0  0
 21 40  1  0  0  0  0
 22 23  2  0  0  0  0
 22 27  1  0  0  0  0
 23 14  1  0  0  0  0
 23 41  1  0  0  0  0
 24 48  1  0  0  0  0
 24 20  1  0  0  0  0
 25 49  1  0  0  0  0
 26 32  2  0  0  0  0
 26 33  1  0  0  0  0
 27 35  2  0  0  0  0
 27 36  1  0  0  0  0
 28 29  2  0  0  0  0
 28 30  1  0  0  0  0
 30 31  1  0  0  0  0
 31 56  1  0  0  0  0
 31 57  1  0  0  0  0
 31 58  1  0  0  0  0
 33 34  1  0  0  0  0
 34 50  1  0  0  0  0
 34 51  1  0  0  0  0
 34 52  1  0  0  0  0
 36 37  1  0  0  0  0
 37 53  1  0  0  0  0
 37 54  1  0  0  0  0
 37 55  1  0  0  0  0
 44 45  1  0  0  0  0
 44 61  1  0  0  0  0
 44 62  1  0  0  0  0
 45 63  1  0  0  0  0
 45 64  1  0  0  0  0
 45 65  1  0  0  0  0
 46 47  1  0  0  0  0
 46 75  1  0  0  0  0
 46 76  1  0  0  0  0
 47 72  1  0  0  0  0
 47 73  1  0  0  0  0
 47 74  1  0  0  0  0
 48 66  1  0  0  0  0
 48 67  1  0  0  0  0
 48 68  1  0  0  0  0
 49 69  1  0  0  0  0
 49 70  1  0  0  0  0
 49 71  1  0  0  0  0
M  END
