 energy: -29.183472059379 gnorm: 0.000609160706 xtb: 6.7.1 (edcfbbe)
          12022412413D

156164  0     0  0            999 V2000
    0.9821    3.0077   -3.4262 C   0  0  0  0  0  0  0  0  0  0  0  0
    2.3161   -3.2638    0.2842 C   0  0  0  0  0  0  0  0  0  0  0  0
   -3.5459    1.6965   -1.6747 C   0  0  0  0  0  0  0  0  0  0  0  0
   -2.7190    0.6358   -1.3257 C   0  0  0  0  0  0  0  0  0  0  0  0
   -1.2985    0.8592   -1.3123 C   0  0  0  0  0  0  0  0  0  0  0  0
   -0.7897    1.9902   -2.0103 C   0  0  0  0  0  0  0  0  0  0  0  0
   -1.6667    3.0283   -2.3192 C   0  0  0  0  0  0  0  0  0  0  0  0
   -3.0251    2.9032   -2.1146 C   0  0  0  0  0  0  0  0  0  0  0  0
   -0.3653   -0.0732   -0.7359 C   0  0  0  0  0  0  0  0  0  0  0  0
    0.9313   -0.1340   -1.3076 C   0  0  0  0  0  0  0  0  0  0  0  0
    1.3714    0.8877   -2.1935 C   0  0  0  0  0  0  0  0  0  0  0  0
    0.5339    1.9749   -2.4705 N   0  0  0  0  0  0  0  0  0  0  0  0
   -0.6603   -0.9246    0.3836 C   0  0  0  0  0  0  0  0  0  0  0  0
    0.1767   -2.0450    0.6355 C   0  0  0  0  0  0  0  0  0  0  0  0
    1.3794   -2.1833   -0.0734 N   0  0  0  0  0  0  0  0  0  0  0  0
    1.7820   -1.2327   -1.0168 C   0  0  0  0  0  0  0  0  0  0  0  0
    2.9997   -1.3248   -1.6818 C   0  0  0  0  0  0  0  0  0  0  0  0
    3.4343   -0.3283   -2.5351 C   0  0  0  0  0  0  0  0  0  0  0  0
    2.6342    0.7738   -2.7624 C   0  0  0  0  0  0  0  0  0  0  0  0
   -1.7074   -0.6253    1.3177 C   0  0  0  0  0  0  0  0  0  0  0  0
   -2.0013   -1.5494    2.3119 C   0  0  0  0  0  0  0  0  0  0  0  0
   -1.2701   -2.7140    2.4605 C   0  0  0  0  0  0  0  0  0  0  0  0
   -0.1867   -2.9440    1.6386 C   0  0  0  0  0  0  0  0  0  0  0  0
   -2.3494    0.6138    1.2647 O   0  0  0  0  0  0  0  0  0  0  0  0
   -3.1999   -0.6437   -1.0519 O   0  0  0  0  0  0  0  0  0  0  0  0
   -3.9152    4.0404   -2.4276 C   0  0  0  0  0  0  0  0  0  0  0  0
   -1.6239   -3.6674    3.5368 C   0  0  0  0  0  0  0  0  0  0  0  0
    4.7513   -0.4220   -3.2023 C   0  0  0  0  0  0  0  0  0  0  0  0
    5.0703    0.4185   -4.0230 O   0  0  0  0  0  0  0  0  0  0  0  0
    5.5444   -1.4783   -2.8455 O   0  0  0  0  0  0  0  0  0  0  0  0
    6.7352   -1.4241   -3.5625 C   0  0  0  0  0  0  0  0  0  0  0  0
   -3.4375    5.0783   -2.8474 O   0  0  0  0  0  0  0  0  0  0  0  0
   -5.2517    3.8444   -2.2150 O   0  0  0  0  0  0  0  0  0  0  0  0
   -5.9438    5.0112   -2.5200 C   0  0  0  0  0  0  0  0  0  0  0  0
   -2.6900   -3.5530    4.1131 O   0  0  0  0  0  0  0  0  0  0  0  0
   -0.7091   -4.6428    3.8257 O   0  0  0  0  0  0  0  0  0  0  0  0
   -1.1919   -5.4247    4.8723 C   0  0  0  0  0  0  0  0  0  0  0  0
   -4.6126    1.6037   -1.6033 H   0  0  0  0  0  0  0  0  0  0  0  0
   -1.3063    3.9595   -2.7141 H   0  0  0  0  0  0  0  0  0  0  0  0
   -2.7621   -1.3451    3.0411 H   0  0  0  0  0  0  0  0  0  0  0  0
    0.3672   -3.8487    1.7971 H   0  0  0  0  0  0  0  0  0  0  0  0
    3.6390   -2.1753   -1.5464 H   0  0  0  0  0  0  0  0  0  0  0  0
    3.0304    1.5403   -3.4002 H   0  0  0  0  0  0  0  0  0  0  0  0
    2.1270   -4.4980   -0.5820 C   0  0  0  0  0  0  0  0  0  0  0  0
    3.0750   -5.6251   -0.2114 C   0  0  0  0  0  0  0  0  0  0  0  0
    1.7520    4.1230   -2.7384 C   0  0  0  0  0  0  0  0  0  0  0  0
    2.3518    5.1188   -3.7154 C   0  0  0  0  0  0  0  0  0  0  0  0
   -3.6720    0.6104    1.7489 C   0  0  0  0  0  0  0  0  0  0  0  0
   -4.5345   -0.8728   -1.4379 C   0  0  0  0  0  0  0  0  0  0  0  0
   -7.0107    4.8516   -2.3516 H   0  0  0  0  0  0  0  0  0  0  0  0
   -5.7617    5.2679   -3.5663 H   0  0  0  0  0  0  0  0  0  0  0  0
   -5.5780    5.8158   -1.8774 H   0  0  0  0  0  0  0  0  0  0  0  0
   -0.4700   -6.2089    5.1086 H   0  0  0  0  0  0  0  0  0  0  0  0
   -2.1429   -5.8698    4.5708 H   0  0  0  0  0  0  0  0  0  0  0  0
   -1.3513   -4.7871    5.7456 H   0  0  0  0  0  0  0  0  0  0  0  0
    7.3661   -2.2698   -3.2819 H   0  0  0  0  0  0  0  0  0  0  0  0
    7.2435   -0.4842   -3.3346 H   0  0  0  0  0  0  0  0  0  0  0  0
    6.5070   -1.4642   -4.6301 H   0  0  0  0  0  0  0  0  0  0  0  0
    2.1923   -3.5085    1.3377 H   0  0  0  0  0  0  0  0  0  0  0  0
    3.3414   -2.8903    0.2250 H   0  0  0  0  0  0  0  0  0  0  0  0
    2.2545   -4.2212   -1.6360 H   0  0  0  0  0  0  0  0  0  0  0  0
    1.0850   -4.8333   -0.5043 H   0  0  0  0  0  0  0  0  0  0  0  0
    4.1156   -5.3130   -0.3131 H   0  0  0  0  0  0  0  0  0  0  0  0
    2.9317   -6.5048   -0.8418 H   0  0  0  0  0  0  0  0  0  0  0  0
    2.9313   -5.9358    0.8247 H   0  0  0  0  0  0  0  0  0  0  0  0
   -4.1489    1.5477    1.4593 H   0  0  0  0  0  0  0  0  0  0  0  0
   -3.6730    0.5298    2.8327 H   0  0  0  0  0  0  0  0  0  0  0  0
   -4.2158   -0.2272    1.3116 H   0  0  0  0  0  0  0  0  0  0  0  0
   -4.7522   -1.9334   -1.3067 H   0  0  0  0  0  0  0  0  0  0  0  0
   -4.6641   -0.6095   -2.4884 H   0  0  0  0  0  0  0  0  0  0  0  0
   -5.2139   -0.2925   -0.8135 H   0  0  0  0  0  0  0  0  0  0  0  0
    2.8954    5.9163   -3.2050 H   0  0  0  0  0  0  0  0  0  0  0  0
    1.5780    5.5860   -4.3265 H   0  0  0  0  0  0  0  0  0  0  0  0
    3.0503    4.6298   -4.3963 H   0  0  0  0  0  0  0  0  0  0  0  0
    2.5391    3.6811   -2.1139 H   0  0  0  0  0  0  0  0  0  0  0  0
    1.0824    4.6345   -2.0367 H   0  0  0  0  0  0  0  0  0  0  0  0
    0.1216    3.4045   -3.9700 H   0  0  0  0  0  0  0  0  0  0  0  0
    1.5877    2.5372   -4.2041 H   0  0  0  0  0  0  0  0  0  0  0  0
    0.1693    3.0348    1.6179 C   0  0  0  0  0  0  0  0  0  0  0  0
    2.7675   -3.0575    5.0219 C   0  0  0  0  0  0  0  0  0  0  0  0
   -3.4816    1.8330    4.8731 C   0  0  0  0  0  0  0  0  0  0  0  0
   -2.5713    0.7874    4.9604 C   0  0  0  0  0  0  0  0  0  0  0  0
   -1.2398    0.9924    4.4573 C   0  0  0  0  0  0  0  0  0  0  0  0
   -1.0162    2.0785    3.5702 C   0  0  0  0  0  0  0  0  0  0  0  0
   -1.9767    3.0861    3.4992 C   0  0  0  0  0  0  0  0  0  0  0  0
   -3.1768    2.9897    4.1736 C   0  0  0  0  0  0  0  0  0  0  0  0
   -0.1712    0.0672    4.7082 C   0  0  0  0  0  0  0  0  0  0  0  0
    0.9027    0.0115    3.7848 C   0  0  0  0  0  0  0  0  0  0  0  0
    1.0363    1.0187    2.7897 C   0  0  0  0  0  0  0  0  0  0  0  0
    0.0925    2.0500    2.7140 N   0  0  0  0  0  0  0  0  0  0  0  0
   -0.1434   -0.8190    5.8375 C   0  0  0  0  0  0  0  0  0  0  0  0
    0.6822   -1.9733    5.7781 C   0  0  0  0  0  0  0  0  0  0  0  0
    1.7129   -2.0400    4.8330 N   0  0  0  0  0  0  0  0  0  0  0  0
    1.8512   -1.0469    3.8564 C   0  0  0  0  0  0  0  0  0  0  0  0
    2.8934   -1.0679    2.9394 C   0  0  0  0  0  0  0  0  0  0  0  0
    3.0435   -0.0699    1.9964 C   0  0  0  0  0  0  0  0  0  0  0  0
    2.1250    0.9592    1.9288 C   0  0  0  0  0  0  0  0  0  0  0  0
   -0.8472   -0.5475    7.0622 C   0  0  0  0  0  0  0  0  0  0  0  0
   -0.9909   -1.5818    7.9795 C   0  0  0  0  0  0  0  0  0  0  0  0
   -0.3647   -2.8032    7.7921 C   0  0  0  0  0  0  0  0  0  0  0  0
    0.5013   -2.9711    6.7323 C   0  0  0  0  0  0  0  0  0  0  0  0
   -1.2882    0.7505    7.3044 O   0  0  0  0  0  0  0  0  0  0  0  0
   -2.9138   -0.4850    5.4090 O   0  0  0  0  0  0  0  0  0  0  0  0
   -4.1678    4.0793    4.0550 C   0  0  0  0  0  0  0  0  0  0  0  0
   -0.5739   -3.9065    8.7521 C   0  0  0  0  0  0  0  0  0  0  0  0
    4.1863   -0.0945    1.0615 C   0  0  0  0  0  0  0  0  0  0  0  0
    4.3565    0.8364    0.2958 O   0  0  0  0  0  0  0  0  0  0  0  0
    4.9937   -1.1981    1.1220 O   0  0  0  0  0  0  0  0  0  0  0  0
    6.0098   -1.0797    0.1810 C   0  0  0  0  0  0  0  0  0  0  0  0
   -3.8833    5.0849    3.4309 O   0  0  0  0  0  0  0  0  0  0  0  0
   -5.3757    3.8722    4.6619 O   0  0  0  0  0  0  0  0  0  0  0  0
   -6.1931    4.9778    4.4533 C   0  0  0  0  0  0  0  0  0  0  0  0
   -1.2211   -3.7164    9.7650 O   0  0  0  0  0  0  0  0  0  0  0  0
   -0.0087   -5.1072    8.4176 O   0  0  0  0  0  0  0  0  0  0  0  0
   -0.2876   -6.0404    9.4104 C   0  0  0  0  0  0  0  0  0  0  0  0
   -4.4575    1.7477    5.3111 H   0  0  0  0  0  0  0  0  0  0  0  0
   -1.8093    3.9690    2.9119 H   0  0  0  0  0  0  0  0  0  0  0  0
   -1.5844   -1.4559    8.8649 H   0  0  0  0  0  0  0  0  0  0  0  0
    1.0191   -3.9079    6.6516 H   0  0  0  0  0  0  0  0  0  0  0  0
    3.6101   -1.8659    2.9362 H   0  0  0  0  0  0  0  0  0  0  0  0
    2.2951    1.7199    1.1916 H   0  0  0  0  0  0  0  0  0  0  0  0
    2.4638   -4.3542    4.2890 C   0  0  0  0  0  0  0  0  0  0  0  0
    3.4393   -5.4677    4.6257 C   0  0  0  0  0  0  0  0  0  0  0  0
    0.9246    4.2849    2.0419 C   0  0  0  0  0  0  0  0  0  0  0  0
    1.0410    5.3136    0.9322 C   0  0  0  0  0  0  0  0  0  0  0  0
   -1.9730    0.9343    8.5182 C   0  0  0  0  0  0  0  0  0  0  0  0
   -4.2699   -0.6877    5.7173 C   0  0  0  0  0  0  0  0  0  0  0  0
   -7.1530    4.8152    4.9476 H   0  0  0  0  0  0  0  0  0  0  0  0
   -6.3412    5.1110    3.3790 H   0  0  0  0  0  0  0  0  0  0  0  0
   -5.7030    5.8628    4.8660 H   0  0  0  0  0  0  0  0  0  0  0  0
    0.1622   -6.9986    9.1431 H   0  0  0  0  0  0  0  0  0  0  0  0
   -1.3711   -6.1462    9.5025 H   0  0  0  0  0  0  0  0  0  0  0  0
    0.1248   -5.6833   10.3570 H   0  0  0  0  0  0  0  0  0  0  0  0
    6.6933   -1.9256    0.2745 H   0  0  0  0  0  0  0  0  0  0  0  0
    6.5433   -0.1410    0.3476 H   0  0  0  0  0  0  0  0  0  0  0  0
    5.5585   -1.0718   -0.8123 H   0  0  0  0  0  0  0  0  0  0  0  0
    2.8814   -3.2416    6.0936 H   0  0  0  0  0  0  0  0  0  0  0  0
    3.7349   -2.6502    4.7195 H   0  0  0  0  0  0  0  0  0  0  0  0
    2.4631   -4.1661    3.2116 H   0  0  0  0  0  0  0  0  0  0  0  0
    1.4364   -4.6625    4.5159 H   0  0  0  0  0  0  0  0  0  0  0  0
    4.4622   -5.1851    4.3720 H   0  0  0  0  0  0  0  0  0  0  0  0
    3.2090   -6.3898    4.0885 H   0  0  0  0  0  0  0  0  0  0  0  0
    3.4227   -5.6962    5.6925 H   0  0  0  0  0  0  0  0  0  0  0  0
   -2.2790    1.9791    8.5833 H   0  0  0  0  0  0  0  0  0  0  0  0
   -1.3124    0.7036    9.3550 H   0  0  0  0  0  0  0  0  0  0  0  0
   -2.8614    0.3021    8.5403 H   0  0  0  0  0  0  0  0  0  0  0  0
   -4.4002   -1.7448    5.9549 H   0  0  0  0  0  0  0  0  0  0  0  0
   -4.8925   -0.4383    4.8576 H   0  0  0  0  0  0  0  0  0  0  0  0
   -4.5469   -0.0860    6.5834 H   0  0  0  0  0  0  0  0  0  0  0  0
    1.5376    6.2255    1.2694 H   0  0  0  0  0  0  0  0  0  0  0  0
    0.0585    5.5951    0.5500 H   0  0  0  0  0  0  0  0  0  0  0  0
    1.6173    4.9190    0.0954 H   0  0  0  0  0  0  0  0  0  0  0  0
    1.9209    3.9962    2.4002 H   0  0  0  0  0  0  0  0  0  0  0  0
    0.4296    4.7233    2.9174 H   0  0  0  0  0  0  0  0  0  0  0  0
   -0.8436    3.2776    1.2852 H   0  0  0  0  0  0  0  0  0  0  0  0
    0.6279    2.5737    0.7402 H   0  0  0  0  0  0  0  0  0  0  0  0
  1 12  1  0  0  0  0
  1 46  1  0  0  0  0
  1 77  1  0  0  0  0
  1 78  1  0  0  0  0
  2 15  1  0  0  0  0
  2 44  1  0  0  0  0
  2 59  1  0  0  0  0
  2 60  1  0  0  0  0
  3  4  2  0  0  0  0
  3  8  1  0  0  0  0
  3 38  1  0  0  0  0
  4  5  1  0  0  0  0
  4 25  1  0  0  0  0
  5  6  2  0  0  0  0
  5  9  1  0  0  0  0
  6  7  1  0  0  0  0
  6 12  1  0  0  0  0
  7  8  2  0  0  0  0
  7 39  1  0  0  0  0
  8 26  1  0  0  0  0
  9 10  2  0  0  0  0
  9 13  1  0  0  0  0
 10 16  1  0  0  0  0
 11 10  1  0  0  0  0
 11 12  1  0  0  0  0
 11 19  1  0  0  0  0
 13 14  2  0  0  0  0
 13 20  1  0  0  0  0
 14 15  1  0  0  0  0
 14 23  1  0  0  0  0
 15 16  1  0  0  0  0
 16 17  2  0  0  0  0
 17 18  1  0  0  0  0
 17 42  1  0  0  0  0
 18 19  2  0  0  0  0
 18 28  1  0  0  0  0
 19 43  1  0  0  0  0
 20 21  2  0  0  0  0
 20 24  1  0  0  0  0
 21 22  1  0  0  0  0
 21 40  1  0  0  0  0
 22 23  2  0  0  0  0
 22 27  1  0  0  0  0
 23 41  1  0  0  0  0
 24 48  1  0  0  0  0
 25 49  1  0  0  0  0
 26 32  2  0  0  0  0
 26 33  1  0  0  0  0
 27 35  2  0  0  0  0
 27 36  1  0  0  0  0
 28 29  2  0  0  0  0
 28 30  1  0  0  0  0
 30 31  1  0  0  0  0
 31 56  1  0  0  0  0
 31 57  1  0  0  0  0
 31 58  1  0  0  0  0
 33 34  1  0  0  0  0
 34 50  1  0  0  0  0
 34 51  1  0  0  0  0
 34 52  1  0  0  0  0
 36 37  1  0  0  0  0
 37 53  1  0  0  0  0
 37 54  1  0  0  0  0
 37 55  1  0  0  0  0
 44 45  1  0  0  0  0
 44 61  1  0  0  0  0
 44 62  1  0  0  0  0
 45 63  1  0  0  0  0
 45 64  1  0  0  0  0
 45 65  1  0  0  0  0
 46 47  1  0  0  0  0
 46 75  1  0  0  0  0
 46 76  1  0  0  0  0
 47 72  1  0  0  0  0
 47 73  1  0  0  0  0
 47 74  1  0  0  0  0
 48 66  1  0  0  0  0
 48 67  1  0  0  0  0
 48 68  1  0  0  0  0
 49 69  1  0  0  0  0
 49 70  1  0  0  0  0
 49 71  1  0  0  0  0
 79 90  1  0  0  0  0
 79124  1  0  0  0  0
 79155  1  0  0  0  0
 79156  1  0  0  0  0
 80 93  1  0  0  0  0
 80122  1  0  0  0  0
 80137  1  0  0  0  0
 80138  1  0  0  0  0
 81 82  2  0  0  0  0
 81 86  1  0  0  0  0
 81116  1  0  0  0  0
 82 83  1  0  0  0  0
 82103  1  0  0  0  0
 83 84  2  0  0  0  0
 83 87  1  0  0  0  0
 84 85  1  0  0  0  0
 84 90  1  0  0  0  0
 85 86  2  0  0  0  0
 85117  1  0  0  0  0
 86104  1  0  0  0  0
 87 88  2  0  0  0  0
 87 91  1  0  0  0  0
 88 94  1  0  0  0  0
 89 88  1  0  0  0  0
 89 90  1  0  0  0  0
 89 97  1  0  0  0  0
 91 92  2  0  0  0  0
 91 98  1  0  0  0  0
 92 93  1  0  0  0  0
 92101  1  0  0  0  0
 93 94  1  0  0  0  0
 94 95  2  0  0  0  0
 95 96  1  0  0  0  0
 95120  1  0  0  0  0
 96 97  2  0  0  0  0
 96106  1  0  0  0  0
 97121  1  0  0  0  0
 98 99  2  0  0  0  0
 98102  1  0  0  0  0
 99100  1  0  0  0  0
 99118  1  0  0  0  0
100101  2  0  0  0  0
100105  1  0  0  0  0
101119  1  0  0  0  0
102126  1  0  0  0  0
103127  1  0  0  0  0
104110  2  0  0  0  0
104111  1  0  0  0  0
105113  2  0  0  0  0
105114  1  0  0  0  0
106107  2  0  0  0  0
106108  1  0  0  0  0
108109  1  0  0  0  0
109134  1  0  0  0  0
109135  1  0  0  0  0
109136  1  0  0  0  0
111112  1  0  0  0  0
112128  1  0  0  0  0
112129  1  0  0  0  0
112130  1  0  0  0  0
114115  1  0  0  0  0
115131  1  0  0  0  0
115132  1  0  0  0  0
115133  1  0  0  0  0
122123  1  0  0  0  0
122139  1  0  0  0  0
122140  1  0  0  0  0
123141  1  0  0  0  0
123142  1  0  0  0  0
123143  1  0  0  0  0
124125  1  0  0  0  0
124153  1  0  0  0  0
124154  1  0  0  0  0
125150  1  0  0  0  0
125151  1  0  0  0  0
125152  1  0  0  0  0
126144  1  0  0  0  0
126145  1  0  0  0  0
126146  1  0  0  0  0
127147  1  0  0  0  0
127148  1  0  0  0  0
127149  1  0  0  0  0
M  END
