 xtb: 6.7.1 (edcfbbe)
          12022412423D

156164  0     0  0            999 V2000
    0.9632    3.0048   -3.5027 C   0  0  0  0  0  0  0  0  0  0  0  0
    2.2355   -3.1157    0.3625 C   0  0  0  0  0  0  0  0  0  0  0  0
   -3.5953    1.4699   -2.0030 C   0  0  0  0  0  0  0  0  0  0  0  0
   -2.7043    0.5334   -1.5255 C   0  0  0  0  0  0  0  0  0  0  0  0
   -1.3123    0.8227   -1.4956 C   0  0  0  0  0  0  0  0  0  0  0  0
   -0.8352    1.9173   -2.2565 C   0  0  0  0  0  0  0  0  0  0  0  0
   -1.7473    2.8919   -2.6505 C   0  0  0  0  0  0  0  0  0  0  0  0
   -3.1139    2.6924   -2.4781 C   0  0  0  0  0  0  0  0  0  0  0  0
   -0.3718    0.0178   -0.7878 C   0  0  0  0  0  0  0  0  0  0  0  0
    0.9464   -0.0300   -1.3047 C   0  0  0  0  0  0  0  0  0  0  0  0
    1.3728    0.9516   -2.2368 C   0  0  0  0  0  0  0  0  0  0  0  0
    0.5075    1.9785   -2.5841 N   0  0  0  0  0  0  0  0  0  0  0  0
   -0.6672   -0.7460    0.3778 C   0  0  0  0  0  0  0  0  0  0  0  0
    0.1859   -1.8249    0.7248 C   0  0  0  0  0  0  0  0  0  0  0  0
    1.3710   -2.0035    0.0268 N   0  0  0  0  0  0  0  0  0  0  0  0
    1.8029   -1.0954   -0.9270 C   0  0  0  0  0  0  0  0  0  0  0  0
    3.0243   -1.2273   -1.5751 C   0  0  0  0  0  0  0  0  0  0  0  0
    3.4500   -0.2469   -2.4666 C   0  0  0  0  0  0  0  0  0  0  0  0
    2.6539    0.8560   -2.7578 C   0  0  0  0  0  0  0  0  0  0  0  0
   -1.7671   -0.4389    1.2266 C   0  0  0  0  0  0  0  0  0  0  0  0
   -2.1283   -1.3057    2.2336 C   0  0  0  0  0  0  0  0  0  0  0  0
   -1.3722   -2.4534    2.4691 C   0  0  0  0  0  0  0  0  0  0  0  0
   -0.2118   -2.6931    1.7380 C   0  0  0  0  0  0  0  0  0  0  0  0
   -2.3776    0.7605    1.0205 O   0  0  0  0  0  0  0  0  0  0  0  0
   -3.0599   -0.7219   -1.1253 O   0  0  0  0  0  0  0  0  0  0  0  0
   -4.0208    3.7826   -2.8650 C   0  0  0  0  0  0  0  0  0  0  0  0
   -1.8325   -3.3708    3.5209 C   0  0  0  0  0  0  0  0  0  0  0  0
    4.7416   -0.3372   -3.1649 C   0  0  0  0  0  0  0  0  0  0  0  0
    5.1382    0.4565   -3.9858 O   0  0  0  0  0  0  0  0  0  0  0  0
    5.4598   -1.4317   -2.8188 O   0  0  0  0  0  0  0  0  0  0  0  0
    6.6989   -1.5799   -3.4929 C   0  0  0  0  0  0  0  0  0  0  0  0
   -3.6695    4.8239   -3.3725 O   0  0  0  0  0  0  0  0  0  0  0  0
   -5.3134    3.5126   -2.5840 O   0  0  0  0  0  0  0  0  0  0  0  0
   -6.2352    4.5385   -2.9101 C   0  0  0  0  0  0  0  0  0  0  0  0
   -2.8997   -3.2937    4.0860 O   0  0  0  0  0  0  0  0  0  0  0  0
   -0.9421   -4.3509    3.7981 O   0  0  0  0  0  0  0  0  0  0  0  0
   -1.3549   -5.2818    4.7865 C   0  0  0  0  0  0  0  0  0  0  0  0
   -4.6576    1.2968   -2.0018 H   0  0  0  0  0  0  0  0  0  0  0  0
   -1.4526    3.8360   -3.0752 H   0  0  0  0  0  0  0  0  0  0  0  0
   -2.9805   -1.1291    2.8663 H   0  0  0  0  0  0  0  0  0  0  0  0
    0.3290   -3.5897    1.9781 H   0  0  0  0  0  0  0  0  0  0  0  0
    3.6755   -2.0679   -1.4214 H   0  0  0  0  0  0  0  0  0  0  0  0
    3.0851    1.5873   -3.4178 H   0  0  0  0  0  0  0  0  0  0  0  0
    1.9817   -4.3321   -0.5318 C   0  0  0  0  0  0  0  0  0  0  0  0
    2.8832   -5.4961   -0.1416 C   0  0  0  0  0  0  0  0  0  0  0  0
    1.6192    4.1755   -2.7690 C   0  0  0  0  0  0  0  0  0  0  0  0
    2.1239    5.2257   -3.7490 C   0  0  0  0  0  0  0  0  0  0  0  0
   -3.6644    0.9570    1.5582 C   0  0  0  0  0  0  0  0  0  0  0  0
   -4.3735   -1.1530   -1.3794 C   0  0  0  0  0  0  0  0  0  0  0  0
   -7.2166    4.1713   -2.6197 H   0  0  0  0  0  0  0  0  0  0  0  0
   -6.2063    4.7514   -3.9810 H   0  0  0  0  0  0  0  0  0  0  0  0
   -5.9921    5.4541   -2.3663 H   0  0  0  0  0  0  0  0  0  0  0  0
   -0.5794   -6.0427    4.8365 H   0  0  0  0  0  0  0  0  0  0  0  0
   -2.3117   -5.7295    4.5091 H   0  0  0  0  0  0  0  0  0  0  0  0
   -1.4637   -4.7851    5.7525 H   0  0  0  0  0  0  0  0  0  0  0  0
    7.1291   -2.5148   -3.1418 H   0  0  0  0  0  0  0  0  0  0  0  0
    7.3601   -0.7418   -3.2620 H   0  0  0  0  0  0  0  0  0  0  0  0
    6.5404   -1.6116   -4.5728 H   0  0  0  0  0  0  0  0  0  0  0  0
    2.0733   -3.3839    1.4039 H   0  0  0  0  0  0  0  0  0  0  0  0
    3.2764   -2.7988    0.2889 H   0  0  0  0  0  0  0  0  0  0  0  0
    2.1589   -4.0583   -1.5735 H   0  0  0  0  0  0  0  0  0  0  0  0
    0.9342   -4.6263   -0.4394 H   0  0  0  0  0  0  0  0  0  0  0  0
    3.9303   -5.2125   -0.2230 H   0  0  0  0  0  0  0  0  0  0  0  0
    2.7079   -6.3487   -0.7923 H   0  0  0  0  0  0  0  0  0  0  0  0
    2.6897   -5.8033    0.8841 H   0  0  0  0  0  0  0  0  0  0  0  0
   -4.0346    1.8752    1.1029 H   0  0  0  0  0  0  0  0  0  0  0  0
   -3.6380    1.0791    2.6429 H   0  0  0  0  0  0  0  0  0  0  0  0
   -4.3288    0.1257    1.3064 H   0  0  0  0  0  0  0  0  0  0  0  0
   -4.4044   -2.1945   -1.0617 H   0  0  0  0  0  0  0  0  0  0  0  0
   -4.6145   -1.0884   -2.4457 H   0  0  0  0  0  0  0  0  0  0  0  0
   -5.1151   -0.5820   -0.8117 H   0  0  0  0  0  0  0  0  0  0  0  0
    2.5795    6.0547   -3.2141 H   0  0  0  0  0  0  0  0  0  0  0  0
    1.3039    5.6138   -4.3490 H   0  0  0  0  0  0  0  0  0  0  0  0
    2.8680    4.7987   -4.4175 H   0  0  0  0  0  0  0  0  0  0  0  0
    2.4511    3.7982   -2.1704 H   0  0  0  0  0  0  0  0  0  0  0  0
    0.8878    4.6234   -2.0934 H   0  0  0  0  0  0  0  0  0  0  0  0
    0.1155    3.3592   -4.0891 H   0  0  0  0  0  0  0  0  0  0  0  0
    1.6672    2.5669   -4.2120 H   0  0  0  0  0  0  0  0  0  0  0  0
    0.1853    2.9913    1.6703 C   0  0  0  0  0  0  0  0  0  0  0  0
    2.7758   -3.0528    4.9753 C   0  0  0  0  0  0  0  0  0  0  0  0
   -3.3987    1.8427    5.0090 C   0  0  0  0  0  0  0  0  0  0  0  0
   -2.5192    0.7792    5.0121 C   0  0  0  0  0  0  0  0  0  0  0  0
   -1.2223    0.9224    4.4365 C   0  0  0  0  0  0  0  0  0  0  0  0
   -0.9984    2.0110    3.5596 C   0  0  0  0  0  0  0  0  0  0  0  0
   -1.8811    3.0867    3.5930 C   0  0  0  0  0  0  0  0  0  0  0  0
   -3.0391    3.0303    4.3642 C   0  0  0  0  0  0  0  0  0  0  0  0
   -0.1704   -0.0085    4.6671 C   0  0  0  0  0  0  0  0  0  0  0  0
    0.8914   -0.0598    3.7290 C   0  0  0  0  0  0  0  0  0  0  0  0
    1.0134    0.9579    2.7456 C   0  0  0  0  0  0  0  0  0  0  0  0
    0.0844    1.9784    2.7024 N   0  0  0  0  0  0  0  0  0  0  0  0
   -0.1107   -0.8781    5.7935 C   0  0  0  0  0  0  0  0  0  0  0  0
    0.7121   -2.0275    5.7206 C   0  0  0  0  0  0  0  0  0  0  0  0
    1.7098   -2.0923    4.7598 N   0  0  0  0  0  0  0  0  0  0  0  0
    1.8509   -1.1047    3.8009 C   0  0  0  0  0  0  0  0  0  0  0  0
    2.9054   -1.1184    2.8991 C   0  0  0  0  0  0  0  0  0  0  0  0
    3.0459   -0.0898    1.9716 C   0  0  0  0  0  0  0  0  0  0  0  0
    2.1110    0.9368    1.8952 C   0  0  0  0  0  0  0  0  0  0  0  0
   -0.7900   -0.6263    7.0201 C   0  0  0  0  0  0  0  0  0  0  0  0
   -0.9283   -1.6358    7.9473 C   0  0  0  0  0  0  0  0  0  0  0  0
   -0.3508   -2.8857    7.7079 C   0  0  0  0  0  0  0  0  0  0  0  0
    0.5184   -3.0580    6.6330 C   0  0  0  0  0  0  0  0  0  0  0  0
   -1.1955    0.6556    7.2267 O   0  0  0  0  0  0  0  0  0  0  0  0
   -2.8342   -0.4625    5.4598 O   0  0  0  0  0  0  0  0  0  0  0  0
   -3.8985    4.2210    4.4018 C   0  0  0  0  0  0  0  0  0  0  0  0
   -0.6323   -3.9699    8.6552 C   0  0  0  0  0  0  0  0  0  0  0  0
    4.2157   -0.0118    1.0816 C   0  0  0  0  0  0  0  0  0  0  0  0
    4.4526    0.9111    0.3363 O   0  0  0  0  0  0  0  0  0  0  0  0
    5.0366   -1.0766    1.2085 O   0  0  0  0  0  0  0  0  0  0  0  0
    6.2300   -1.0381    0.4405 C   0  0  0  0  0  0  0  0  0  0  0  0
   -3.6699    5.2556    3.8160 O   0  0  0  0  0  0  0  0  0  0  0  0
   -4.9969    4.0522    5.1698 O   0  0  0  0  0  0  0  0  0  0  0  0
   -5.8633    5.1707    5.2472 C   0  0  0  0  0  0  0  0  0  0  0  0
   -1.2996   -3.8600    9.6592 O   0  0  0  0  0  0  0  0  0  0  0  0
   -0.0703   -5.1465    8.2871 O   0  0  0  0  0  0  0  0  0  0  0  0
   -0.3177   -6.2365    9.1575 C   0  0  0  0  0  0  0  0  0  0  0  0
   -4.3567    1.7835    5.4968 H   0  0  0  0  0  0  0  0  0  0  0  0
   -1.7055    4.0035    3.0586 H   0  0  0  0  0  0  0  0  0  0  0  0
   -1.4879   -1.5110    8.8592 H   0  0  0  0  0  0  0  0  0  0  0  0
    1.0036   -4.0113    6.5274 H   0  0  0  0  0  0  0  0  0  0  0  0
    3.6496   -1.8933    2.8969 H   0  0  0  0  0  0  0  0  0  0  0  0
    2.3075    1.7025    1.1658 H   0  0  0  0  0  0  0  0  0  0  0  0
    2.5829   -4.3578    4.1940 C   0  0  0  0  0  0  0  0  0  0  0  0
    3.3670   -5.5024    4.8237 C   0  0  0  0  0  0  0  0  0  0  0  0
    1.0368    4.1801    2.1255 C   0  0  0  0  0  0  0  0  0  0  0  0
    1.1650    5.2270    1.0282 C   0  0  0  0  0  0  0  0  0  0  0  0
   -1.8566    0.9649    8.4285 C   0  0  0  0  0  0  0  0  0  0  0  0
   -4.1690   -0.7495    5.7937 C   0  0  0  0  0  0  0  0  0  0  0  0
   -6.6765    4.8826    5.9087 H   0  0  0  0  0  0  0  0  0  0  0  0
   -6.2465    5.4249    4.2562 H   0  0  0  0  0  0  0  0  0  0  0  0
   -5.3319    6.0372    5.6469 H   0  0  0  0  0  0  0  0  0  0  0  0
    0.1864   -7.0958    8.7220 H   0  0  0  0  0  0  0  0  0  0  0  0
   -1.3908   -6.4228    9.2395 H   0  0  0  0  0  0  0  0  0  0  0  0
    0.0758   -6.0255   10.1544 H   0  0  0  0  0  0  0  0  0  0  0  0
    6.8894   -1.7942    0.8614 H   0  0  0  0  0  0  0  0  0  0  0  0
    6.6874   -0.0490    0.5044 H   0  0  0  0  0  0  0  0  0  0  0  0
    6.0124   -1.2591   -0.6055 H   0  0  0  0  0  0  0  0  0  0  0  0
    2.8166   -3.2727    6.0447 H   0  0  0  0  0  0  0  0  0  0  0  0
    3.7314   -2.5913    4.7178 H   0  0  0  0  0  0  0  0  0  0  0  0
    2.9154   -4.2206    3.1637 H   0  0  0  0  0  0  0  0  0  0  0  0
    1.5195   -4.5999    4.1731 H   0  0  0  0  0  0  0  0  0  0  0  0
    4.4268   -5.2607    4.8688 H   0  0  0  0  0  0  0  0  0  0  0  0
    3.2486   -6.4121    4.2400 H   0  0  0  0  0  0  0  0  0  0  0  0
    3.0179   -5.6983    5.8353 H   0  0  0  0  0  0  0  0  0  0  0  0
   -2.1050    2.0232    8.3595 H   0  0  0  0  0  0  0  0  0  0  0  0
   -1.2100    0.7969    9.2960 H   0  0  0  0  0  0  0  0  0  0  0  0
   -2.7750    0.3826    8.5485 H   0  0  0  0  0  0  0  0  0  0  0  0
   -4.2033   -1.8315    5.9098 H   0  0  0  0  0  0  0  0  0  0  0  0
   -4.8560   -0.4504    4.9952 H   0  0  0  0  0  0  0  0  0  0  0  0
   -4.4714   -0.2632    6.7272 H   0  0  0  0  0  0  0  0  0  0  0  0
    1.7233    6.0870    1.3889 H   0  0  0  0  0  0  0  0  0  0  0  0
    0.1830    5.5662    0.7064 H   0  0  0  0  0  0  0  0  0  0  0  0
    1.6893    4.8148    0.1700 H   0  0  0  0  0  0  0  0  0  0  0  0
    2.0281    3.8208    2.4092 H   0  0  0  0  0  0  0  0  0  0  0  0
    0.5814    4.6268    3.0114 H   0  0  0  0  0  0  0  0  0  0  0  0
   -0.8212    3.3181    1.4048 H   0  0  0  0  0  0  0  0  0  0  0  0
    0.6075    2.5406    0.7706 H   0  0  0  0  0  0  0  0  0  0  0  0
  3  4  4  0  0  0  0
  4  5  4  0  0  0  0
  5  6  4  0  0  0  0
  6  7  4  0  0  0  0
  3  8  4  0  0  0  0
  7  8  4  0  0  0  0
  5  9  1  0  0  0  0
  9 10  4  0  0  0  0
 10 11  4  0  0  0  0
  1 12  1  0  0  0  0
  6 12  1  0  0  0  0
 11 12  1  0  0  0  0
  9 13  4  0  0  0  0
 13 14  4  0  0  0  0
  2 15  1  0  0  0  0
 14 15  1  0  0  0  0
 10 16  4  0  0  0  0
 15 16  1  0  0  0  0
 16 17  4  0  0  0  0
 17 18  4  0  0  0  0
 11 19  4  0  0  0  0
 18 19  4  0  0  0  0
 13 20  4  0  0  0  0
 20 21  4  0  0  0  0
 21 22  4  0  0  0  0
 14 23  4  0  0  0  0
 22 23  4  0  0  0  0
 20 24  1  0  0  0  0
  4 25  1  0  0  0  0
  8 26  1  0  0  0  0
 22 27  1  0  0  0  0
 18 28  1  0  0  0  0
 28 29  2  0  0  0  0
 28 30  1  0  0  0  0
 30 31  1  0  0  0  0
 26 32  2  0  0  0  0
 26 33  1  0  0  0  0
 33 34  1  0  0  0  0
 27 35  2  0  0  0  0
 27 36  1  0  0  0  0
 36 37  1  0  0  0  0
  3 38  1  0  0  0  0
  7 39  1  0  0  0  0
 21 40  1  0  0  0  0
 23 41  1  0  0  0  0
 17 42  1  0  0  0  0
 19 43  1  0  0  0  0
  2 44  1  0  0  0  0
 44 45  1  0  0  0  0
  1 46  1  0  0  0  0
 46 47  1  0  0  0  0
 24 48  1  0  0  0  0
 25 49  1  0  0  0  0
 34 50  1  0  0  0  0
 34 51  1  0  0  0  0
 34 52  1  0  0  0  0
 37 53  1  0  0  0  0
 37 54  1  0  0  0  0
 37 55  1  0  0  0  0
 31 56  1  0  0  0  0
 31 57  1  0  0  0  0
 31 58  1  0  0  0  0
  2 59  1  0  0  0  0
  2 60  1  0  0  0  0
 44 61  1  0  0  0  0
 44 62  1  0  0  0  0
 45 63  1  0  0  0  0
 45 64  1  0  0  0  0
 45 65  1  0  0  0  0
 48 66  1  0  0  0  0
 48 67  1  0  0  0  0
 48 68  1  0  0  0  0
 49 69  1  0  0  0  0
 49 70  1  0  0  0  0
 49 71  1  0  0  0  0
 47 72  1  0  0  0  0
 47 73  1  0  0  0  0
 47 74  1  0  0  0  0
 46 75  1  0  0  0  0
 46 76  1  0  0  0  0
  1 77  1  0  0  0  0
  1 78  1  0  0  0  0
 81 82  4  0  0  0  0
 82 83  4  0  0  0  0
 83 84  4  0  0  0  0
 84 85  4  0  0  0  0
 81 86  4  0  0  0  0
 85 86  4  0  0  0  0
 83 87  4  0  0  0  0
 87 88  4  0  0  0  0
 88 89  4  0  0  0  0
 79 90  1  0  0  0  0
 84 90  1  0  0  0  0
 89 90  1  0  0  0  0
 87 91  4  0  0  0  0
 91 92  4  0  0  0  0
 80 93  1  0  0  0  0
 92 93  1  0  0  0  0
 88 94  4  0  0  0  0
 93 94  1  0  0  0  0
 94 95  4  0  0  0  0
 95 96  4  0  0  0  0
 89 97  4  0  0  0  0
 96 97  4  0  0  0  0
 91 98  4  0  0  0  0
 98 99  4  0  0  0  0
 99100  4  0  0  0  0
 92101  4  0  0  0  0
100101  4  0  0  0  0
 98102  1  0  0  0  0
 82103  1  0  0  0  0
 86104  1  0  0  0  0
100105  1  0  0  0  0
 96106  1  0  0  0  0
106107  2  0  0  0  0
106108  1  0  0  0  0
108109  1  0  0  0  0
104110  2  0  0  0  0
104111  1  0  0  0  0
111112  1  0  0  0  0
105113  2  0  0  0  0
105114  1  0  0  0  0
114115  1  0  0  0  0
 81116  1  0  0  0  0
 85117  1  0  0  0  0
 99118  1  0  0  0  0
101119  1  0  0  0  0
 95120  1  0  0  0  0
 97121  1  0  0  0  0
 80122  1  0  0  0  0
122123  1  0  0  0  0
 79124  1  0  0  0  0
124125  1  0  0  0  0
102126  1  0  0  0  0
103127  1  0  0  0  0
112128  1  0  0  0  0
112129  1  0  0  0  0
112130  1  0  0  0  0
115131  1  0  0  0  0
115132  1  0  0  0  0
115133  1  0  0  0  0
109134  1  0  0  0  0
109135  1  0  0  0  0
109136  1  0  0  0  0
 80137  1  0  0  0  0
 80138  1  0  0  0  0
122139  1  0  0  0  0
122140  1  0  0  0  0
123141  1  0  0  0  0
123142  1  0  0  0  0
123143  1  0  0  0  0
126144  1  0  0  0  0
126145  1  0  0  0  0
126146  1  0  0  0  0
127147  1  0  0  0  0
127148  1  0  0  0  0
127149  1  0  0  0  0
125150  1  0  0  0  0
125151  1  0  0  0  0
125152  1  0  0  0  0
124153  1  0  0  0  0
124154  1  0  0  0  0
 79155  1  0  0  0  0
 79156  1  0  0  0  0
M  END
