xtb: 6.7.1 (edcfbbe)_xtb: 6.7.1 (edcfbbe)
 OpenBabel12022412413D

156164  0  0  0  0  0  0  0  0999 V2000
    0.9650    3.3615   -3.2858 C   0  0  0  0  0  0  0  0  0  0  0  0
    2.5341   -3.1484   -0.4209 C   0  0  0  0  0  0  0  0  0  0  0  0
   -3.5550    1.5098   -1.8461 C   0  0  0  0  0  0  0  0  0  0  0  0
   -2.6048    0.6134   -1.4027 C   0  0  0  0  0  0  0  0  0  0  0  0
   -1.2237    0.8773   -1.6094 C   0  0  0  0  0  0  0  0  0  0  0  0
   -0.8557    1.9490   -2.4559 C   0  0  0  0  0  0  0  0  0  0  0  0
   -1.8270    2.8437   -2.8889 C   0  0  0  0  0  0  0  0  0  0  0  0
   -3.1623    2.6483   -2.5531 C   0  0  0  0  0  0  0  0  0  0  0  0
   -0.1886    0.0502   -1.0739 C   0  0  0  0  0  0  0  0  0  0  0  0
    1.0102   -0.0350   -1.8229 C   0  0  0  0  0  0  0  0  0  0  0  0
    1.3068    0.9756   -2.7709 C   0  0  1  0  0  0  0  0  0  0  0  0
    0.4675    2.0754   -2.8417 N   0  0  0  0  0  0  0  0  0  0  0  0
   -0.2891   -0.7427    0.1025 C   0  0  0  0  0  0  0  0  0  0  0  0
    0.5520   -1.8758    0.2392 C   0  0  0  0  0  0  0  0  0  0  0  0
    1.6135   -2.0501   -0.6368 N   0  0  0  0  0  0  0  0  0  0  0  0
    1.8935   -1.1272   -1.6319 C   0  0  0  0  0  0  0  0  0  0  0  0
    2.9899   -1.2475   -2.4761 C   0  0  0  0  0  0  0  0  0  0  0  0
    3.2436   -0.2792   -3.4465 C   0  0  0  0  0  0  0  0  0  0  0  0
    2.4196    0.8349   -3.5833 C   0  0  0  0  0  0  0  0  0  0  0  0
   -1.1669   -0.4055    1.1697 C   0  0  0  0  0  0  0  0  0  0  0  0
   -1.3823   -1.3016    2.1928 C   0  0  0  0  0  0  0  0  0  0  0  0
   -0.7117   -2.5272    2.1938 C   0  0  0  0  0  0  0  0  0  0  0  0
    0.2725   -2.7948    1.2460 C   0  0  0  0  0  0  0  0  0  0  0  0
   -1.6981    0.8466    1.1284 O   0  0  0  0  0  0  0  0  0  0  0  0
   -2.9053   -0.5781   -0.8175 O   0  0  0  0  0  0  0  0  0  0  0  0
   -4.1395    3.6481   -3.0119 C   0  0  0  0  0  0  0  0  0  0  0  0
   -1.0477   -3.4889    3.2530 C   0  0  0  0  0  0  0  0  0  0  0  0
    4.3910   -0.3955   -4.3618 C   0  0  0  0  0  0  0  0  0  0  0  0
    4.6897    0.4282   -5.1965 O   0  0  0  0  0  0  0  0  0  0  0  0
    5.0963   -1.5319   -4.1802 O   0  0  0  0  0  0  0  0  0  0  0  0
    6.2121   -1.7007   -5.0379 C   0  0  0  0  0  0  0  0  0  0  0  0
   -3.8581    4.6546   -3.6224 O   0  0  0  0  0  0  0  0  0  0  0  0
   -5.4089    3.3329   -2.6799 O   0  0  0  0  0  0  0  0  0  0  0  0
   -6.3981    4.2609   -3.0908 C   0  0  0  0  0  0  0  0  0  0  0  0
   -1.9014   -3.3100    4.0931 O   0  0  0  0  0  0  0  0  0  0  0  0
   -0.2939   -4.6086    3.1935 O   0  0  0  0  0  0  0  0  0  0  0  0
   -0.5404   -5.6122    4.1649 C   0  0  0  0  0  0  0  0  0  0  0  0
   -4.6053    1.3522   -1.6712 H   0  0  0  0  0  0  0  0  0  0  0  0
   -1.5944    3.6967   -3.5025 H   0  0  0  0  0  0  0  0  0  0  0  0
   -2.0671   -1.1063    3.0011 H   0  0  0  0  0  0  0  0  0  0  0  0
    0.7770   -3.7407    1.3200 H   0  0  0  0  0  0  0  0  0  0  0  0
    3.6664   -2.0811   -2.4331 H   0  0  0  0  0  0  0  0  0  0  0  0
    2.6660    1.5397   -4.3600 H   0  0  0  0  0  0  0  0  0  0  0  0
    2.1638   -4.3812   -1.2495 C   0  0  0  0  0  0  0  0  0  0  0  0
    3.1463   -5.5201   -1.0119 C   0  0  0  0  0  0  0  0  0  0  0  0
    0.9102    4.3954   -2.1551 C   0  0  0  0  0  0  0  0  0  0  0  0
    1.4341    5.7447   -2.6282 C   0  0  0  0  0  0  0  0  0  0  0  0
   -2.5553    1.2431    2.1700 C   0  0  0  0  0  0  0  0  0  0  0  0
   -4.2546   -0.9012   -0.5940 C   0  0  0  0  0  0  0  0  0  0  0  0
   -7.3592    3.8010   -2.8727 H   0  0  0  0  0  0  0  0  0  0  0  0
   -6.3039    4.4696   -4.1589 H   0  0  0  0  0  0  0  0  0  0  0  0
   -6.2907    5.1993   -2.5414 H   0  0  0  0  0  0  0  0  0  0  0  0
    0.4054   -5.8549    4.6497 H   0  0  0  0  0  0  0  0  0  0  0  0
   -0.9378   -6.4966    3.6642 H   0  0  0  0  0  0  0  0  0  0  0  0
   -1.2599   -5.2471    4.9006 H   0  0  0  0  0  0  0  0  0  0  0  0
    6.6577   -2.6567   -4.7745 H   0  0  0  0  0  0  0  0  0  0  0  0
    6.9295   -0.8900   -4.8933 H   0  0  0  0  0  0  0  0  0  0  0  0
    5.8926   -1.7009   -6.0823 H   0  0  0  0  0  0  0  0  0  0  0  0
    2.5458   -3.3990    0.6407 H   0  0  0  0  0  0  0  0  0  0  0  0
    3.5448   -2.8201   -0.6697 H   0  0  0  0  0  0  0  0  0  0  0  0
    2.1576   -4.1108   -2.3072 H   0  0  0  0  0  0  0  0  0  0  0  0
    1.1543   -4.6998   -0.9830 H   0  0  0  0  0  0  0  0  0  0  0  0
    4.1549   -5.2190   -1.2866 H   0  0  0  0  0  0  0  0  0  0  0  0
    2.8740   -6.3875   -1.6073 H   0  0  0  0  0  0  0  0  0  0  0  0
    3.1493   -5.8110    0.0363 H   0  0  0  0  0  0  0  0  0  0  0  0
   -2.8710    2.2549    1.9186 H   0  0  0  0  0  0  0  0  0  0  0  0
   -2.0372    1.2520    3.1346 H   0  0  0  0  0  0  0  0  0  0  0  0
   -3.4340    0.5946    2.2416 H   0  0  0  0  0  0  0  0  0  0  0  0
   -4.2423   -1.8691   -0.0942 H   0  0  0  0  0  0  0  0  0  0  0  0
   -4.8100   -0.9839   -1.5341 H   0  0  0  0  0  0  0  0  0  0  0  0
   -4.7470   -0.1668    0.0514 H   0  0  0  0  0  0  0  0  0  0  0  0
    1.4041    6.4678   -1.8174 H   0  0  0  0  0  0  0  0  0  0  0  0
    0.8259    6.1232   -3.4464 H   0  0  0  0  0  0  0  0  0  0  0  0
    2.4618    5.6589   -2.9743 H   0  0  0  0  0  0  0  0  0  0  0  0
    1.5146    4.0330   -1.3206 H   0  0  0  0  0  0  0  0  0  0  0  0
   -0.1157    4.5032   -1.8011 H   0  0  0  0  0  0  0  0  0  0  0  0
    0.3967    3.7156   -4.1511 H   0  0  0  0  0  0  0  0  0  0  0  0
    2.0032    3.2473   -3.5917 H   0  0  0  0  0  0  0  0  0  0  0  0
    0.9650    3.3615    2.7142 C   0  0  0  0  0  0  0  0  0  0  0  0
    2.5341   -3.1484    5.5791 C   0  0  0  0  0  0  0  0  0  0  0  0
   -3.5550    1.5098    4.1539 C   0  0  0  0  0  0  0  0  0  0  0  0
   -2.6048    0.6134    4.5973 C   0  0  0  0  0  0  0  0  0  0  0  0
   -1.2237    0.8773    4.3906 C   0  0  0  0  0  0  0  0  0  0  0  0
   -0.8557    1.9490    3.5441 C   0  0  0  0  0  0  0  0  0  0  0  0
   -1.8270    2.8437    3.1111 C   0  0  0  0  0  0  0  0  0  0  0  0
   -3.1623    2.6483    3.4469 C   0  0  0  0  0  0  0  0  0  0  0  0
   -0.1886    0.0502    4.9261 C   0  0  0  0  0  0  0  0  0  0  0  0
    1.0102   -0.0350    4.1771 C   0  0  0  0  0  0  0  0  0  0  0  0
    1.3068    0.9756    3.2291 C   0  0  1  0  0  0  0  0  0  0  0  0
    0.4675    2.0754    3.1583 N   0  0  0  0  0  0  0  0  0  0  0  0
   -0.2891   -0.7427    6.1025 C   0  0  0  0  0  0  0  0  0  0  0  0
    0.5520   -1.8758    6.2392 C   0  0  0  0  0  0  0  0  0  0  0  0
    1.6135   -2.0501    5.3632 N   0  0  0  0  0  0  0  0  0  0  0  0
    1.8935   -1.1272    4.3681 C   0  0  0  0  0  0  0  0  0  0  0  0
    2.9899   -1.2475    3.5239 C   0  0  0  0  0  0  0  0  0  0  0  0
    3.2436   -0.2792    2.5535 C   0  0  0  0  0  0  0  0  0  0  0  0
    2.4196    0.8349    2.4167 C   0  0  0  0  0  0  0  0  0  0  0  0
   -1.1669   -0.4055    7.1697 C   0  0  0  0  0  0  0  0  0  0  0  0
   -1.3823   -1.3016    8.1928 C   0  0  0  0  0  0  0  0  0  0  0  0
   -0.7117   -2.5272    8.1938 C   0  0  0  0  0  0  0  0  0  0  0  0
    0.2725   -2.7948    7.2460 C   0  0  0  0  0  0  0  0  0  0  0  0
   -1.6981    0.8466    7.1284 O   0  0  0  0  0  0  0  0  0  0  0  0
   -2.9053   -0.5781    5.1825 O   0  0  0  0  0  0  0  0  0  0  0  0
   -4.1395    3.6481    2.9881 C   0  0  0  0  0  0  0  0  0  0  0  0
   -1.0477   -3.4889    9.2530 C   0  0  0  0  0  0  0  0  0  0  0  0
    4.3910   -0.3955    1.6382 C   0  0  0  0  0  0  0  0  0  0  0  0
    4.6897    0.4282    0.8035 O   0  0  0  0  0  0  0  0  0  0  0  0
    5.0963   -1.5319    1.8198 O   0  0  0  0  0  0  0  0  0  0  0  0
    6.2121   -1.7007    0.9621 C   0  0  0  0  0  0  0  0  0  0  0  0
   -3.8581    4.6546    2.3776 O   0  0  0  0  0  0  0  0  0  0  0  0
   -5.4089    3.3329    3.3201 O   0  0  0  0  0  0  0  0  0  0  0  0
   -6.3981    4.2609    2.9092 C   0  0  0  0  0  0  0  0  0  0  0  0
   -1.9014   -3.3100   10.0931 O   0  0  0  0  0  0  0  0  0  0  0  0
   -0.2939   -4.6086    9.1935 O   0  0  0  0  0  0  0  0  0  0  0  0
   -0.5404   -5.6122   10.1649 C   0  0  0  0  0  0  0  0  0  0  0  0
   -4.6053    1.3522    4.3288 H   0  0  0  0  0  0  0  0  0  0  0  0
   -1.5944    3.6967    2.4975 H   0  0  0  0  0  0  0  0  0  0  0  0
   -2.0671   -1.1063    9.0011 H   0  0  0  0  0  0  0  0  0  0  0  0
    0.7770   -3.7407    7.3200 H   0  0  0  0  0  0  0  0  0  0  0  0
    3.6664   -2.0811    3.5669 H   0  0  0  0  0  0  0  0  0  0  0  0
    2.6660    1.5397    1.6400 H   0  0  0  0  0  0  0  0  0  0  0  0
    2.1638   -4.3812    4.7505 C   0  0  0  0  0  0  0  0  0  0  0  0
    3.1463   -5.5201    4.9881 C   0  0  0  0  0  0  0  0  0  0  0  0
    0.9102    4.3954    3.8449 C   0  0  0  0  0  0  0  0  0  0  0  0
    1.4341    5.7447    3.3718 C   0  0  0  0  0  0  0  0  0  0  0  0
   -2.5553    1.2431    8.1700 C   0  0  0  0  0  0  0  0  0  0  0  0
   -4.2546   -0.9012    5.4060 C   0  0  0  0  0  0  0  0  0  0  0  0
   -7.3592    3.8010    3.1273 H   0  0  0  0  0  0  0  0  0  0  0  0
   -6.3039    4.4696    1.8411 H   0  0  0  0  0  0  0  0  0  0  0  0
   -6.2907    5.1993    3.4586 H   0  0  0  0  0  0  0  0  0  0  0  0
    0.4054   -5.8549   10.6497 H   0  0  0  0  0  0  0  0  0  0  0  0
   -0.9378   -6.4966    9.6642 H   0  0  0  0  0  0  0  0  0  0  0  0
   -1.2599   -5.2471   10.9006 H   0  0  0  0  0  0  0  0  0  0  0  0
    6.6577   -2.6567    1.2255 H   0  0  0  0  0  0  0  0  0  0  0  0
    6.9295   -0.8900    1.1067 H   0  0  0  0  0  0  0  0  0  0  0  0
    5.8926   -1.7009   -0.0823 H   0  0  0  0  0  0  0  0  0  0  0  0
    2.5458   -3.3990    6.6407 H   0  0  0  0  0  0  0  0  0  0  0  0
    3.5448   -2.8201    5.3303 H   0  0  0  0  0  0  0  0  0  0  0  0
    2.1576   -4.1108    3.6928 H   0  0  0  0  0  0  0  0  0  0  0  0
    1.1543   -4.6998    5.0170 H   0  0  0  0  0  0  0  0  0  0  0  0
    4.1549   -5.2190    4.7134 H   0  0  0  0  0  0  0  0  0  0  0  0
    2.8740   -6.3875    4.3927 H   0  0  0  0  0  0  0  0  0  0  0  0
    3.1493   -5.8110    6.0363 H   0  0  0  0  0  0  0  0  0  0  0  0
   -2.8710    2.2549    7.9186 H   0  0  0  0  0  0  0  0  0  0  0  0
   -2.0372    1.2520    9.1346 H   0  0  0  0  0  0  0  0  0  0  0  0
   -3.4340    0.5946    8.2416 H   0  0  0  0  0  0  0  0  0  0  0  0
   -4.2423   -1.8691    5.9058 H   0  0  0  0  0  0  0  0  0  0  0  0
   -4.8100   -0.9839    4.4659 H   0  0  0  0  0  0  0  0  0  0  0  0
   -4.7470   -0.1668    6.0514 H   0  0  0  0  0  0  0  0  0  0  0  0
    1.4041    6.4678    4.1826 H   0  0  0  0  0  0  0  0  0  0  0  0
    0.8259    6.1232    2.5536 H   0  0  0  0  0  0  0  0  0  0  0  0
    2.4618    5.6589    3.0257 H   0  0  0  0  0  0  0  0  0  0  0  0
    1.5146    4.0330    4.6794 H   0  0  0  0  0  0  0  0  0  0  0  0
   -0.1157    4.5032    4.1989 H   0  0  0  0  0  0  0  0  0  0  0  0
    0.3967    3.7156    1.8489 H   0  0  0  0  0  0  0  0  0  0  0  0
    2.0032    3.2473    2.4083 H   0  0  0  0  0  0  0  0  0  0  0  0
  1 12  1  0  0  0  0
  1 46  1  0  0  0  0
  1 77  1  0  0  0  0
  1 78  1  0  0  0  0
  2 15  1  0  0  0  0
  2 44  1  0  0  0  0
  2 59  1  0  0  0  0
  2 60  1  0  0  0  0
  3  4  2  0  0  0  0
  3  8  1  0  0  0  0
  3 38  1  0  0  0  0
  4  5  1  0  0  0  0
  4 25  1  0  0  0  0
  5  6  2  0  0  0  0
  5  9  1  0  0  0  0
  6  7  1  0  0  0  0
  6 12  1  0  0  0  0
  7  8  2  0  0  0  0
  7 39  1  0  0  0  0
  8 26  1  0  0  0  0
  9 10  2  0  0  0  0
  9 13  1  0  0  0  0
 10 16  1  0  0  0  0
 11 10  1  1  0  0  0
 11 12  1  0  0  0  0
 11 19  1  0  0  0  0
 13 14  2  0  0  0  0
 13 20  1  0  0  0  0
 14 15  1  0  0  0  0
 14 23  1  0  0  0  0
 15 16  1  0  0  0  0
 16 17  2  0  0  0  0
 17 18  1  0  0  0  0
 17 42  1  0  0  0  0
 18 19  2  0  0  0  0
 18 28  1  0  0  0  0
 19 43  1  0  0  0  0
 20 21  2  0  0  0  0
 20 24  1  0  0  0  0
 21 22  1  0  0  0  0
 21 40  1  0  0  0  0
 22 23  2  0  0  0  0
 22 27  1  0  0  0  0
 23 41  1  0  0  0  0
 24 48  1  0  0  0  0
 25 49  1  0  0  0  0
 26 32  2  0  0  0  0
 26 33  1  0  0  0  0
 27 35  2  0  0  0  0
 27 36  1  0  0  0  0
 28 29  2  0  0  0  0
 28 30  1  0  0  0  0
 30 31  1  0  0  0  0
 31 56  1  0  0  0  0
 31 57  1  0  0  0  0
 31 58  1  0  0  0  0
 33 34  1  0  0  0  0
 34 50  1  0  0  0  0
 34 51  1  0  0  0  0
 34 52  1  0  0  0  0
 36 37  1  0  0  0  0
 37 53  1  0  0  0  0
 37 54  1  0  0  0  0
 37 55  1  0  0  0  0
 44 45  1  0  0  0  0
 44 61  1  0  0  0  0
 44 62  1  0  0  0  0
 45 63  1  0  0  0  0
 45 64  1  0  0  0  0
 45 65  1  0  0  0  0
 46 47  1  0  0  0  0
 46 75  1  0  0  0  0
 46 76  1  0  0  0  0
 47 72  1  0  0  0  0
 47 73  1  0  0  0  0
 47 74  1  0  0  0  0
 48 66  1  0  0  0  0
 48 67  1  0  0  0  0
 48 68  1  0  0  0  0
 49 69  1  0  0  0  0
 49 70  1  0  0  0  0
 49 71  1  0  0  0  0
 79 90  1  0  0  0  0
 79124  1  0  0  0  0
 79155  1  0  0  0  0
 79156  1  0  0  0  0
 80 93  1  0  0  0  0
 80122  1  0  0  0  0
 80137  1  0  0  0  0
 80138  1  0  0  0  0
 81 82  2  0  0  0  0
 81 86  1  0  0  0  0
 81116  1  0  0  0  0
 82 83  1  0  0  0  0
 82103  1  0  0  0  0
 83 84  2  0  0  0  0
 83 87  1  0  0  0  0
 84 85  1  0  0  0  0
 84 90  1  0  0  0  0
 85 86  2  0  0  0  0
 85117  1  0  0  0  0
 86104  1  0  0  0  0
 87 88  2  0  0  0  0
 87 91  1  0  0  0  0
 88 94  1  0  0  0  0
 89 88  1  1  0  0  0
 89 90  1  0  0  0  0
 89 97  1  0  0  0  0
 91 92  2  0  0  0  0
 91 98  1  0  0  0  0
 92 93  1  0  0  0  0
 92101  1  0  0  0  0
 93 94  1  0  0  0  0
 94 95  2  0  0  0  0
 95 96  1  0  0  0  0
 95120  1  0  0  0  0
 96 97  2  0  0  0  0
 96106  1  0  0  0  0
 97121  1  0  0  0  0
 98 99  2  0  0  0  0
 98102  1  0  0  0  0
 99100  1  0  0  0  0
 99118  1  0  0  0  0
100101  2  0  0  0  0
100105  1  0  0  0  0
101119  1  0  0  0  0
102126  1  0  0  0  0
103127  1  0  0  0  0
104110  2  0  0  0  0
104111  1  0  0  0  0
105113  2  0  0  0  0
105114  1  0  0  0  0
106107  2  0  0  0  0
106108  1  0  0  0  0
108109  1  0  0  0  0
109134  1  0  0  0  0
109135  1  0  0  0  0
109136  1  0  0  0  0
111112  1  0  0  0  0
112128  1  0  0  0  0
112129  1  0  0  0  0
112130  1  0  0  0  0
114115  1  0  0  0  0
115131  1  0  0  0  0
115132  1  0  0  0  0
115133  1  0  0  0  0
122123  1  0  0  0  0
122139  1  0  0  0  0
122140  1  0  0  0  0
123141  1  0  0  0  0
123142  1  0  0  0  0
123143  1  0  0  0  0
124125  1  0  0  0  0
124153  1  0  0  0  0
124154  1  0  0  0  0
125150  1  0  0  0  0
125151  1  0  0  0  0
125152  1  0  0  0  0
126144  1  0  0  0  0
126145  1  0  0  0  0
126146  1  0  0  0  0
127147  1  0  0  0  0
127148  1  0  0  0  0
127149  1  0  0  0  0
M  END
