 energy: -127.255373183516 gnorm: 0.000312989172 xtb: 6.7.1 (edcfbbe)
          03032513503D

 78 82  0     0  0            999 V2000
    0.8832    3.3510   -3.1747 C   0  0  0  0  0  0  0  0  0  0  0  0
    2.5356   -3.0381   -0.2742 C   0  0  0  0  0  0  0  0  0  0  0  0
   -3.6804    1.4756   -1.8842 C   0  0  0  0  0  0  0  0  0  0  0  0
   -2.7390    0.5500   -1.4898 C   0  0  0  0  0  0  0  0  0  0  0  0
   -1.3553    0.8143   -1.6661 C   0  0  0  0  0  0  0  0  0  0  0  0
   -0.9799    1.9134   -2.4745 C   0  0  0  0  0  0  0  0  0  0  0  0
   -1.9346    2.8197   -2.8896 C   0  0  0  0  0  0  0  0  0  0  0  0
   -3.2856    2.6426   -2.5476 C   0  0  0  0  0  0  0  0  0  0  0  0
   -0.3306   -0.0213   -1.1208 C   0  0  0  0  0  0  0  0  0  0  0  0
    0.8950   -0.0829   -1.8392 C   0  0  0  0  0  0  0  0  0  0  0  0
    1.2065    0.9371   -2.7654 C   0  0  0  0  0  0  0  0  0  0  0  0
    0.3670    2.0544   -2.8093 N   0  0  0  0  0  0  0  0  0  0  0  0
   -0.4731   -0.8446    0.0245 C   0  0  0  0  0  0  0  0  0  0  0  0
    0.3916   -1.9628    0.1904 C   0  0  0  0  0  0  0  0  0  0  0  0
    1.5109   -2.0889   -0.6393 N   0  0  0  0  0  0  0  0  0  0  0  0
    1.7882   -1.1607   -1.6437 C   0  0  0  0  0  0  0  0  0  0  0  0
    2.8974   -1.2678   -2.4627 C   0  0  0  0  0  0  0  0  0  0  0  0
    3.1668   -0.2942   -3.4365 C   0  0  0  0  0  0  0  0  0  0  0  0
    2.3189    0.8134   -3.5711 C   0  0  0  0  0  0  0  0  0  0  0  0
   -1.4088   -0.5826    1.0597 C   0  0  0  0  0  0  0  0  0  0  0  0
   -1.6547   -1.5097    2.0444 C   0  0  0  0  0  0  0  0  0  0  0  0
   -0.9603   -2.7217    2.0628 C   0  0  0  0  0  0  0  0  0  0  0  0
    0.0961   -2.9106    1.1466 C   0  0  0  0  0  0  0  0  0  0  0  0
   -2.0916    0.6301    1.1346 O   0  0  0  0  0  0  0  0  0  0  0  0
   -3.0552   -0.6838   -0.9871 O   0  0  0  0  0  0  0  0  0  0  0  0
   -4.2345    3.6619   -2.9421 C   0  0  0  0  0  0  0  0  0  0  0  0
   -1.3035   -3.7148    3.0519 C   0  0  0  0  0  0  0  0  0  0  0  0
    4.3142   -0.3922   -4.3124 C   0  0  0  0  0  0  0  0  0  0  0  0
    4.6422    0.4197   -5.1612 O   0  0  0  0  0  0  0  0  0  0  0  0
    5.0568   -1.5303   -4.1085 O   0  0  0  0  0  0  0  0  0  0  0  0
    6.1781   -1.6671   -4.9506 C   0  0  0  0  0  0  0  0  0  0  0  0
   -3.9669    4.6956   -3.5308 O   0  0  0  0  0  0  0  0  0  0  0  0
   -5.5233    3.3554   -2.5833 O   0  0  0  0  0  0  0  0  0  0  0  0
   -6.5211    4.2902   -2.9290 C   0  0  0  0  0  0  0  0  0  0  0  0
   -2.1866   -3.6225    3.8880 O   0  0  0  0  0  0  0  0  0  0  0  0
   -0.5086   -4.8380    2.9745 O   0  0  0  0  0  0  0  0  0  0  0  0
   -0.7801   -5.8723    3.8929 C   0  0  0  0  0  0  0  0  0  0  0  0
   -4.7303    1.3163   -1.7046 H   0  0  0  0  0  0  0  0  0  0  0  0
   -1.6877    3.6939   -3.4677 H   0  0  0  0  0  0  0  0  0  0  0  0
   -2.3955   -1.3085    2.8030 H   0  0  0  0  0  0  0  0  0  0  0  0
    0.6361   -3.8382    1.2168 H   0  0  0  0  0  0  0  0  0  0  0  0
    3.5769   -2.0994   -2.4053 H   0  0  0  0  0  0  0  0  0  0  0  0
    2.5678    1.5384   -4.3294 H   0  0  0  0  0  0  0  0  0  0  0  0
    2.3957   -4.3701   -1.0192 C   0  0  0  0  0  0  0  0  0  0  0  0
    3.4880   -5.3508   -0.6137 C   0  0  0  0  0  0  0  0  0  0  0  0
    0.7871    4.3379   -2.0032 C   0  0  0  0  0  0  0  0  0  0  0  0
    1.3207    5.7100   -2.3921 C   0  0  0  0  0  0  0  0  0  0  0  0
   -1.2677    1.7477    1.3540 C   0  0  0  0  0  0  0  0  0  0  0  0
   -4.3412   -0.8804   -0.4679 C   0  0  0  0  0  0  0  0  0  0  0  0
   -7.2662    3.7947   -3.5555 H   0  0  0  0  0  0  0  0  0  0  0  0
   -6.0692    5.1234   -3.4744 H   0  0  0  0  0  0  0  0  0  0  0  0
   -6.9952    4.6582   -2.0160 H   0  0  0  0  0  0  0  0  0  0  0  0
    0.1147   -6.0586    4.4919 H   0  0  0  0  0  0  0  0  0  0  0  0
   -1.0470   -6.7769    3.3410 H   0  0  0  0  0  0  0  0  0  0  0  0
   -1.6079   -5.5757    4.5432 H   0  0  0  0  0  0  0  0  0  0  0  0
    6.6678   -2.5962   -4.6638 H   0  0  0  0  0  0  0  0  0  0  0  0
    6.8609   -0.8215   -4.8249 H   0  0  0  0  0  0  0  0  0  0  0  0
    5.8706   -1.7072   -5.9997 H   0  0  0  0  0  0  0  0  0  0  0  0
    2.4873   -3.2120    0.8047 H   0  0  0  0  0  0  0  0  0  0  0  0
    3.5169   -2.6009   -0.4828 H   0  0  0  0  0  0  0  0  0  0  0  0
    2.4441   -4.1824   -2.0933 H   0  0  0  0  0  0  0  0  0  0  0  0
    1.4144   -4.7957   -0.8026 H   0  0  0  0  0  0  0  0  0  0  0  0
    4.4709   -4.9410   -0.8390 H   0  0  0  0  0  0  0  0  0  0  0  0
    3.3776   -6.2917   -1.1483 H   0  0  0  0  0  0  0  0  0  0  0  0
    3.4389   -5.5546    0.4543 H   0  0  0  0  0  0  0  0  0  0  0  0
   -1.9151    2.6223    1.2940 H   0  0  0  0  0  0  0  0  0  0  0  0
   -0.4797    1.8354    0.5997 H   0  0  0  0  0  0  0  0  0  0  0  0
   -0.8033    1.7028    2.3486 H   0  0  0  0  0  0  0  0  0  0  0  0
   -4.3119   -1.8483    0.0322 H   0  0  0  0  0  0  0  0  0  0  0  0
   -5.1018   -0.9031   -1.2591 H   0  0  0  0  0  0  0  0  0  0  0  0
   -4.5949   -0.1058    0.2617 H   0  0  0  0  0  0  0  0  0  0  0  0
    1.2661    6.3953   -1.5490 H   0  0  0  0  0  0  0  0  0  0  0  0
    0.7348    6.1252   -3.2092 H   0  0  0  0  0  0  0  0  0  0  0  0
    2.3583    5.6411   -2.7141 H   0  0  0  0  0  0  0  0  0  0  0  0
    1.3615    3.9384   -1.1640 H   0  0  0  0  0  0  0  0  0  0  0  0
   -0.2526    4.4234   -1.6852 H   0  0  0  0  0  0  0  0  0  0  0  0
    0.3524    3.7536   -4.0455 H   0  0  0  0  0  0  0  0  0  0  0  0
    1.9329    3.2417   -3.4457 H   0  0  0  0  0  0  0  0  0  0  0  0
  1 46  1  0  0  0  0
  1 77  1  0  0  0  0
  1 78  1  0  0  0  0
  2 44  1  0  0  0  0
  2 59  1  0  0  0  0
  2 60  1  0  0  0  0
  3  4  2  0  0  0  0
  3 38  1  0  0  0  0
  4  5  1  0  0  0  0
  4 25  1  0  0  0  0
  5  6  2  0  0  0  0
  5  9  1  0  0  0  0
  6  7  1  0  0  0  0
  7  8  2  0  0  0  0
  7 39  1  0  0  0  0
  8  3  1  0  0  0  0
  8 26  1  0  0  0  0
  9 10  1  0  0  0  0
 10 11  2  0  0  0  0
 11 12  1  0  0  0  0
 12  1  1  0  0  0  0
 12  6  1  0  0  0  0
 13 14  2  0  0  0  0
 13 20  1  0  0  0  0
 13  9  1  0  0  0  0
 14 15  1  0  0  0  0
 15  2  1  0  0  0  0
 15 16  1  0  0  0  0
 16 10  1  0  0  0  0
 16 17  2  0  0  0  0
 17 18  1  0  0  0  0
 17 42  1  0  0  0  0
 18 19  2  0  0  0  0
 18 28  1  0  0  0  0
 19 11  1  0  0  0  0
 19 43  1  0  0  0  0
 20 21  2  0  0  0  0
 21 22  1  0  0  0  0
 21 40  1  0  0  0  0
 22 23  2  0  0  0  0
 22 27  1  0  0  0  0
 23 14  1  0  0  0  0
 23 41  1  0  0  0  0
 24 48  1  0  0  0  0
 24 20  1  0  0  0  0
 25 49  1  0  0  0  0
 26 32  2  0  0  0  0
 26 33  1  0  0  0  0
 27 35  2  0  0  0  0
 27 36  1  0  0  0  0
 28 29  2  0  0  0  0
 28 30  1  0  0  0  0
 30 31  1  0  0  0  0
 31 56  1  0  0  0  0
 31 57  1  0  0  0  0
 31 58  1  0  0  0  0
 33 34  1  0  0  0  0
 34 50  1  0  0  0  0
 34 51  1  0  0  0  0
 34 52  1  0  0  0  0
 36 37  1  0  0  0  0
 37 53  1  0  0  0  0
 37 54  1  0  0  0  0
 37 55  1  0  0  0  0
 44 45  1  0  0  0  0
 44 61  1  0  0  0  0
 44 62  1  0  0  0  0
 45 63  1  0  0  0  0
 45 64  1  0  0  0  0
 45 65  1  0  0  0  0
 46 47  1  0  0  0  0
 46 75  1  0  0  0  0
 46 76  1  0  0  0  0
 47 72  1  0  0  0  0
 47 73  1  0  0  0  0
 47 74  1  0  0  0  0
 48 66  1  0  0  0  0
 48 67  1  0  0  0  0
 48 68  1  0  0  0  0
 49 69  1  0  0  0  0
 49 70  1  0  0  0  0
 49 71  1  0  0  0  0
M  CHG  1   1  -1
M  END
