 energy: -196.161060537743 gnorm: 0.000174912818 xtb: 6.7.1 (edcfbbe)
          03212511373D

137148  0     0  0            999 V2000
   -0.8951   -2.0332    1.3340 C   0  0  0  0  0  0  0  0  0  0  0  0
   -1.3549   -0.9094    0.6525 C   0  0  0  0  0  0  0  0  0  0  0  0
   -2.5959   -0.9611   -0.0471 C   0  0  0  0  0  0  0  0  0  0  0  0
   -3.1787   -2.2713   -0.1619 C   0  0  0  0  0  0  0  0  0  0  0  0
   -2.6222   -3.3935    0.4896 C   0  0  0  0  0  0  0  0  0  0  0  0
   -1.5321   -3.2751    1.3151 C   0  0  0  0  0  0  0  0  0  0  0  0
   -3.4141    0.1428   -0.4738 C   0  0  0  0  0  0  0  0  0  0  0  0
   -4.7319   -0.1718   -0.8682 C   0  0  0  0  0  0  0  0  0  0  0  0
   -5.1150   -1.5148   -1.1255 C   0  0  0  0  0  0  0  0  0  0  0  0
   -4.3283   -2.5335   -0.7980 N   0  0  0  0  0  0  0  0  0  0  0  0
   -3.1388    1.5510   -0.3945 C   0  0  0  0  0  0  0  0  0  0  0  0
   -4.2655    2.4301   -0.2473 C   0  0  0  0  0  0  0  0  0  0  0  0
   -5.5193    2.0779   -0.5443 N   0  0  0  0  0  0  0  0  0  0  0  0
   -5.7305    0.8357   -0.9800 C   0  0  0  0  0  0  0  0  0  0  0  0
   -7.0006    0.5018   -1.4845 C   0  0  0  0  0  0  0  0  0  0  0  0
   -7.3228   -0.7928   -1.8771 C   0  0  0  0  0  0  0  0  0  0  0  0
   -6.3847   -1.7909   -1.6822 C   0  0  0  0  0  0  0  0  0  0  0  0
   -1.8793    2.1833   -0.5031 C   0  0  0  0  0  0  0  0  0  0  0  0
   -1.7342    3.4992   -0.0808 C   0  0  0  0  0  0  0  0  0  0  0  0
   -2.8121    4.2896    0.3244 C   0  0  0  0  0  0  0  0  0  0  0  0
   -4.0727    3.7635    0.1696 C   0  0  0  0  0  0  0  0  0  0  0  0
   -0.6095    0.1857    0.8273 O   0  0  0  0  0  0  0  0  0  0  0  0
   -0.8544    1.5666   -1.1028 O   0  0  0  0  0  0  0  0  0  0  0  0
    0.1040    0.8509   -0.2688 B   0  0  0  0  0  0  0  0  0  0  0  0
    1.0716   -2.3074   -1.2481 C   0  0  0  0  0  0  0  0  0  0  0  0
    1.5431   -1.0749   -0.8038 C   0  0  0  0  0  0  0  0  0  0  0  0
    2.7771   -0.9994   -0.0949 C   0  0  0  0  0  0  0  0  0  0  0  0
    3.3393   -2.2664    0.2904 C   0  0  0  0  0  0  0  0  0  0  0  0
    2.7712   -3.4903   -0.1262 C   0  0  0  0  0  0  0  0  0  0  0  0
    1.6895   -3.5279   -0.9700 C   0  0  0  0  0  0  0  0  0  0  0  0
    3.6072    0.1586    0.1073 C   0  0  0  0  0  0  0  0  0  0  0  0
    4.9164   -0.0857    0.5738 C   0  0  0  0  0  0  0  0  0  0  0  0
    5.2766   -1.3536    1.1043 C   0  0  0  0  0  0  0  0  0  0  0  0
    4.4781   -2.4089    0.9807 N   0  0  0  0  0  0  0  0  0  0  0  0
    3.3538    1.5235   -0.2636 C   0  0  0  0  0  0  0  0  0  0  0  0
    4.4959    2.3377   -0.5741 C   0  0  0  0  0  0  0  0  0  0  0  0
    5.7410    2.0372   -0.1935 N   0  0  0  0  0  0  0  0  0  0  0  0
    5.9289    0.9094    0.4904 C   0  0  0  0  0  0  0  0  0  0  0  0
    7.1930    0.6756    1.0702 C   0  0  0  0  0  0  0  0  0  0  0  0
    7.4895   -0.5120    1.7203 C   0  0  0  0  0  0  0  0  0  0  0  0
    6.5348   -1.5199    1.7188 C   0  0  0  0  0  0  0  0  0  0  0  0
    2.1037    2.1829   -0.3038 C   0  0  0  0  0  0  0  0  0  0  0  0
    1.9848    3.3846   -0.9911 C   0  0  0  0  0  0  0  0  0  0  0  0
    3.0795    4.0589   -1.5367 C   0  0  0  0  0  0  0  0  0  0  0  0
    4.3296    3.5586   -1.2596 C   0  0  0  0  0  0  0  0  0  0  0  0
    1.0634    1.7215    0.3999 O   0  0  0  0  0  0  0  0  0  0  0  0
    0.8151   -0.0282   -1.2034 O   0  0  0  0  0  0  0  0  0  0  0  0
   -1.0933   -4.3856    2.2566 C   0  0  0  0  0  0  0  0  0  0  0  0
    0.4192   -4.3525    2.5052 C   0  0  0  0  0  0  0  0  0  0  0  0
   -1.4801   -5.7748    1.7369 C   0  0  0  0  0  0  0  0  0  0  0  0
   -1.8243   -4.1415    3.5872 C   0  0  0  0  0  0  0  0  0  0  0  0
   -2.6330    5.7044    0.8554 C   0  0  0  0  0  0  0  0  0  0  0  0
   -3.2974    5.7951    2.2361 C   0  0  0  0  0  0  0  0  0  0  0  0
   -1.1608    6.0947    1.0088 C   0  0  0  0  0  0  0  0  0  0  0  0
   -3.2998    6.6959   -0.1078 C   0  0  0  0  0  0  0  0  0  0  0  0
   -8.7013   -1.0615   -2.4662 C   0  0  0  0  0  0  0  0  0  0  0  0
   -8.8925   -2.5241   -2.8755 C   0  0  0  0  0  0  0  0  0  0  0  0
   -8.8881   -0.1876   -3.7142 C   0  0  0  0  0  0  0  0  0  0  0  0
   -9.7699   -0.7102   -1.4220 C   0  0  0  0  0  0  0  0  0  0  0  0
    1.2377   -4.8002   -1.6694 C   0  0  0  0  0  0  0  0  0  0  0  0
   -0.2753   -4.8012   -1.9183 C   0  0  0  0  0  0  0  0  0  0  0  0
    1.6117   -6.0606   -0.8814 C   0  0  0  0  0  0  0  0  0  0  0  0
    1.9677   -4.8363   -3.0222 C   0  0  0  0  0  0  0  0  0  0  0  0
    2.9290    5.3358   -2.3508 C   0  0  0  0  0  0  0  0  0  0  0  0
    3.6089    5.1299   -3.7115 C   0  0  0  0  0  0  0  0  0  0  0  0
    3.6023    6.4955   -1.6041 C   0  0  0  0  0  0  0  0  0  0  0  0
    1.4652    5.7068   -2.6011 C   0  0  0  0  0  0  0  0  0  0  0  0
    8.8300   -0.7611    2.3991 C   0  0  0  0  0  0  0  0  0  0  0  0
    9.7601    0.4532    2.3317 C   0  0  0  0  0  0  0  0  0  0  0  0
    8.5837   -1.0923    3.8774 C   0  0  0  0  0  0  0  0  0  0  0  0
    9.5301   -1.9411    1.7116 C   0  0  0  0  0  0  0  0  0  0  0  0
  -10.7651   -0.9033   -1.8197 H   0  0  0  0  0  0  0  0  0  0  0  0
   -9.7114    0.3365   -1.1374 H   0  0  0  0  0  0  0  0  0  0  0  0
   -9.6309   -1.3137   -0.5273 H   0  0  0  0  0  0  0  0  0  0  0  0
   -9.8810   -2.6540   -3.3140 H   0  0  0  0  0  0  0  0  0  0  0  0
   -8.8160   -3.1832   -2.0141 H   0  0  0  0  0  0  0  0  0  0  0  0
   -8.1519   -2.8202   -3.6145 H   0  0  0  0  0  0  0  0  0  0  0  0
   -9.8671   -0.3650   -4.1571 H   0  0  0  0  0  0  0  0  0  0  0  0
   -8.1255   -0.4239   -4.4534 H   0  0  0  0  0  0  0  0  0  0  0  0
   -8.8086    0.8680   -3.4707 H   0  0  0  0  0  0  0  0  0  0  0  0
   -1.5364   -4.8925    4.3215 H   0  0  0  0  0  0  0  0  0  0  0  0
   -2.9018   -4.1889    3.4423 H   0  0  0  0  0  0  0  0  0  0  0  0
   -1.5773   -3.1575    3.9787 H   0  0  0  0  0  0  0  0  0  0  0  0
    0.7351   -5.2633    3.0122 H   0  0  0  0  0  0  0  0  0  0  0  0
    0.6958   -3.5123    3.1357 H   0  0  0  0  0  0  0  0  0  0  0  0
    0.9641   -4.2643    1.5691 H   0  0  0  0  0  0  0  0  0  0  0  0
   -1.0911   -6.5403    2.4070 H   0  0  0  0  0  0  0  0  0  0  0  0
   -1.0709   -5.9455    0.7454 H   0  0  0  0  0  0  0  0  0  0  0  0
   -2.5597   -5.8912    1.6921 H   0  0  0  0  0  0  0  0  0  0  0  0
   -0.6030   -5.7925   -2.2283 H   0  0  0  0  0  0  0  0  0  0  0  0
   -0.5445   -4.1042   -2.7069 H   0  0  0  0  0  0  0  0  0  0  0  0
   -0.8161   -4.5172   -1.0196 H   0  0  0  0  0  0  0  0  0  0  0  0
    1.6699   -5.7162   -3.5906 H   0  0  0  0  0  0  0  0  0  0  0  0
    3.0450   -4.8653   -2.8712 H   0  0  0  0  0  0  0  0  0  0  0  0
    1.7302   -3.9482   -3.6032 H   0  0  0  0  0  0  0  0  0  0  0  0
    1.2140   -6.9411   -1.3844 H   0  0  0  0  0  0  0  0  0  0  0  0
    1.2025   -6.0248    0.1241 H   0  0  0  0  0  0  0  0  0  0  0  0
    2.6902   -6.1763   -0.8140 H   0  0  0  0  0  0  0  0  0  0  0  0
   -3.1880    6.7987    2.6450 H   0  0  0  0  0  0  0  0  0  0  0  0
   -2.8305    5.0892    2.9194 H   0  0  0  0  0  0  0  0  0  0  0  0
   -4.3566    5.5608    2.1768 H   0  0  0  0  0  0  0  0  0  0  0  0
    3.4934    7.4216   -2.1669 H   0  0  0  0  0  0  0  0  0  0  0  0
    4.6617    6.3032   -1.4588 H   0  0  0  0  0  0  0  0  0  0  0  0
    3.1431    6.6273   -0.6266 H   0  0  0  0  0  0  0  0  0  0  0  0
   -1.0889    7.0822    1.4636 H   0  0  0  0  0  0  0  0  0  0  0  0
   -0.6669    6.1356    0.0409 H   0  0  0  0  0  0  0  0  0  0  0  0
   -0.6345    5.3868    1.6441 H   0  0  0  0  0  0  0  0  0  0  0  0
   -3.1705    7.7163    0.2505 H   0  0  0  0  0  0  0  0  0  0  0  0
   -4.3635    6.4952   -0.1998 H   0  0  0  0  0  0  0  0  0  0  0  0
   -2.8517    6.6158   -1.0960 H   0  0  0  0  0  0  0  0  0  0  0  0
    3.5205    6.0290   -4.3200 H   0  0  0  0  0  0  0  0  0  0  0  0
    3.1371    4.3049   -4.2407 H   0  0  0  0  0  0  0  0  0  0  0  0
    4.6633    4.8977   -3.5909 H   0  0  0  0  0  0  0  0  0  0  0  0
    1.4143    6.5799   -3.2509 H   0  0  0  0  0  0  0  0  0  0  0  0
    0.9622    5.9538   -1.6692 H   0  0  0  0  0  0  0  0  0  0  0  0
    0.9338    4.8904   -3.0836 H   0  0  0  0  0  0  0  0  0  0  0  0
    9.6896   -1.7188    0.6584 H   0  0  0  0  0  0  0  0  0  0  0  0
    8.9327   -2.8458    1.7804 H   0  0  0  0  0  0  0  0  0  0  0  0
   10.4964   -2.1305    2.1765 H   0  0  0  0  0  0  0  0  0  0  0  0
    8.0775   -0.2626    4.3666 H   0  0  0  0  0  0  0  0  0  0  0  0
    9.5290   -1.2709    4.3877 H   0  0  0  0  0  0  0  0  0  0  0  0
    7.9639   -1.9779    3.9837 H   0  0  0  0  0  0  0  0  0  0  0  0
    9.3039    1.3188    2.8059 H   0  0  0  0  0  0  0  0  0  0  0  0
   10.0037    0.7014    1.3015 H   0  0  0  0  0  0  0  0  0  0  0  0
   10.6894    0.2301    2.8542 H   0  0  0  0  0  0  0  0  0  0  0  0
    7.9086    1.4746    0.9761 H   0  0  0  0  0  0  0  0  0  0  0  0
    6.7283   -2.4863    2.1570 H   0  0  0  0  0  0  0  0  0  0  0  0
    3.3015   -4.3743    0.1878 H   0  0  0  0  0  0  0  0  0  0  0  0
    5.2351    4.0832   -1.5208 H   0  0  0  0  0  0  0  0  0  0  0  0
   -4.9672    4.3456    0.3262 H   0  0  0  0  0  0  0  0  0  0  0  0
   -3.1676   -4.3147    0.3662 H   0  0  0  0  0  0  0  0  0  0  0  0
   -7.7142    1.3078   -1.5518 H   0  0  0  0  0  0  0  0  0  0  0  0
   -6.5848   -2.8242   -1.9096 H   0  0  0  0  0  0  0  0  0  0  0  0
    0.1760   -2.2628   -1.8462 H   0  0  0  0  0  0  0  0  0  0  0  0
    0.0073   -1.8815    1.9039 H   0  0  0  0  0  0  0  0  0  0  0  0
   -0.7323    3.8887   -0.0829 H   0  0  0  0  0  0  0  0  0  0  0  0
    0.9898    3.7812   -1.0817 H   0  0  0  0  0  0  0  0  0  0  0  0
  1135  1  0  0  0  0
  2  1  1  0  0  0  0
  2 22  1  0  0  0  0
  3  7  1  0  0  0  0
  3  2  2  0  0  0  0
  4  3  1  0  0  0  0
  5  4  2  0  0  0  0
  5  6  1  0  0  0  0
  6 48  1  0  0  0  0
  6  1  3  0  0  0  0
  7 11  1  0  0  0  0
  7  8  1  0  0  0  0
  9 17  1  0  0  0  0
  9  8  1  0  0  0  0
 10  4  1  0  0  0  0
 10  9  1  0  0  0  0
 11 18  2  0  0  0  0
 11 12  1  0  0  0  0
 12 21  2  0  0  0  0
 13 12  1  0  0  0  0
 14 13  1  0  0  0  0
 14  8  1  0  0  0  0
 15 16  1  0  0  0  0
 15 14  2  0  0  0  0
 16 17  1  0  0  0  0
 18 19  1  0  0  0  0
 19 20  2  0  0  0  0
 19136  1  0  0  0  0
 21 20  1  0  0  0  0
 23 18  1  0  0  0  0
 24 23  1  0  0  0  0
 24 22  1  0  0  0  0
 24 46  1  0  0  0  0
 25 26  1  0  0  0  0
 25134  1  0  0  0  0
 27 26  1  0  0  0  0
 27 31  2  0  0  0  0
 28 34  2  0  0  0  0
 28 27  1  0  0  0  0
 29 28  1  0  0  0  0
 29128  1  0  0  0  0
 29 30  1  0  0  0  0
 30 25  1  0  0  0  0
 30 60  1  0  0  0  0
 31 35  1  0  0  0  0
 32 31  1  0  0  0  0
 32 38  1  0  0  0  0
 33 32  2  0  0  0  0
 33 41  1  0  0  0  0
 34 33  1  0  0  0  0
 35 36  2  0  0  0  0
 35 42  1  0  0  0  0
 36 37  1  0  0  0  0
 38 37  1  0  0  0  0
 38 39  2  0  0  0  0
 39126  1  0  0  0  0
 40 39  1  0  0  0  0
 41127  1  0  0  0  0
 41 40  2  0  0  0  0
 42 46  1  0  0  0  0
 43 42  2  0  0  0  0
 43137  1  0  0  0  0
 44 45  2  0  0  0  0
 44 43  1  0  0  0  0
 45129  1  0  0  0  0
 45 36  1  0  0  0  0
 47 26  1  0  0  0  0
 47 24  1  0  0  0  0
 48 49  1  0  0  0  0
 49 84  1  0  0  0  0
 49 85  1  0  0  0  0
 49 86  1  0  0  0  0
 50 87  1  0  0  0  0
 50 48  1  0  0  0  0
 50 88  1  0  0  0  0
 51 83  1  0  0  0  0
 51 48  1  0  0  0  0
 52 20  1  0  0  0  0
 52 53  1  0  0  0  0
 52 54  1  0  0  0  0
 53100  1  0  0  0  0
 54107  1  0  0  0  0
 55 52  1  0  0  0  0
 56 16  1  0  0  0  0
 56 59  1  0  0  0  0
 57 56  1  0  0  0  0
 58 78  1  0  0  0  0
 58 56  1  0  0  0  0
 58 80  1  0  0  0  0
 59 72  1  0  0  0  0
 59 74  1  0  0  0  0
 59 73  1  0  0  0  0
 60 63  1  0  0  0  0
 60 62  1  0  0  0  0
 61 90  1  0  0  0  0
 61 60  1  0  0  0  0
 62 97  1  0  0  0  0
 62 96  1  0  0  0  0
 62 98  1  0  0  0  0
 63 94  1  0  0  0  0
 64 66  1  0  0  0  0
 64 44  1  0  0  0  0
 65113  1  0  0  0  0
 65 64  1  0  0  0  0
 66103  1  0  0  0  0
 66104  1  0  0  0  0
 67 64  1  0  0  0  0
 67115  1  0  0  0  0
 68 40  1  0  0  0  0
 68 70  1  0  0  0  0
 69123  1  0  0  0  0
 69 68  1  0  0  0  0
 70121  1  0  0  0  0
 70122  1  0  0  0  0
 70120  1  0  0  0  0
 71119  1  0  0  0  0
 71118  1  0  0  0  0
 71 68  1  0  0  0  0
 75 57  1  0  0  0  0
 76 57  1  0  0  0  0
 77 57  1  0  0  0  0
 79 58  1  0  0  0  0
 81 51  1  0  0  0  0
 82 51  1  0  0  0  0
 89 50  1  0  0  0  0
 91 61  1  0  0  0  0
 92 61  1  0  0  0  0
 93 63  1  0  0  0  0
 95 63  1  0  0  0  0
 99 53  1  0  0  0  0
101 53  1  0  0  0  0
102 66  1  0  0  0  0
105 54  1  0  0  0  0
106 54  1  0  0  0  0
108 55  1  0  0  0  0
109 55  1  0  0  0  0
110 55  1  0  0  0  0
111 65  1  0  0  0  0
112 65  1  0  0  0  0
114 67  1  0  0  0  0
116 67  1  0  0  0  0
117 71  1  0  0  0  0
124 69  1  0  0  0  0
125 69  1  0  0  0  0
130 21  1  0  0  0  0
131  5  1  0  0  0  0
132 15  1  0  0  0  0
133 17  1  0  0  0  0
M  CHG  1   1  -1
M  END
