 energy: -195.470543977005 gnorm: 0.000184478463 xtb: 6.7.1 (edcfbbe)
          03212512063D

137148  0     0  0            999 V2000
   -0.8768   -2.0041    1.4068 C   0  0  0  0  0  0  0  0  0  0  0  0
   -1.3310   -0.8815    0.7081 C   0  0  0  0  0  0  0  0  0  0  0  0
   -2.5715   -0.9394    0.0144 C   0  0  0  0  0  0  0  0  0  0  0  0
   -3.1549   -2.2588   -0.0870 C   0  0  0  0  0  0  0  0  0  0  0  0
   -2.5894   -3.3830    0.5650 C   0  0  0  0  0  0  0  0  0  0  0  0
   -1.5077   -3.2527    1.4012 C   0  0  0  0  0  0  0  0  0  0  0  0
   -3.3918    0.1579   -0.4147 C   0  0  0  0  0  0  0  0  0  0  0  0
   -4.7081   -0.1641   -0.8108 C   0  0  0  0  0  0  0  0  0  0  0  0
   -5.0950   -1.5087   -1.0419 C   0  0  0  0  0  0  0  0  0  0  0  0
   -4.3078   -2.5189   -0.6928 N   0  0  0  0  0  0  0  0  0  0  0  0
   -3.1250    1.5674   -0.3449 C   0  0  0  0  0  0  0  0  0  0  0  0
   -4.2662    2.4461   -0.2046 C   0  0  0  0  0  0  0  0  0  0  0  0
   -5.4958    2.0857   -0.5279 N   0  0  0  0  0  0  0  0  0  0  0  0
   -5.7071    0.8364   -0.9458 C   0  0  0  0  0  0  0  0  0  0  0  0
   -6.9810    0.4965   -1.4332 C   0  0  0  0  0  0  0  0  0  0  0  0
   -7.3120   -0.8055   -1.8067 C   0  0  0  0  0  0  0  0  0  0  0  0
   -6.3659   -1.7959   -1.5917 C   0  0  0  0  0  0  0  0  0  0  0  0
   -1.8820    2.2165   -0.4895 C   0  0  0  0  0  0  0  0  0  0  0  0
   -1.7582    3.5482   -0.0891 C   0  0  0  0  0  0  0  0  0  0  0  0
   -2.8371    4.3410    0.3227 C   0  0  0  0  0  0  0  0  0  0  0  0
   -4.0917    3.7939    0.1962 C   0  0  0  0  0  0  0  0  0  0  0  0
   -0.5746    0.2033    0.8485 O   0  0  0  0  0  0  0  0  0  0  0  0
   -0.8522    1.6067   -1.0732 O   0  0  0  0  0  0  0  0  0  0  0  0
    0.1065    0.8755   -0.2602 B   0  0  0  0  0  0  0  0  0  0  0  0
    1.0261   -2.3098   -1.2719 C   0  0  0  0  0  0  0  0  0  0  0  0
    1.5070   -1.0743   -0.8287 C   0  0  0  0  0  0  0  0  0  0  0  0
    2.7475   -1.0092   -0.1358 C   0  0  0  0  0  0  0  0  0  0  0  0
    3.3032   -2.2897    0.2450 C   0  0  0  0  0  0  0  0  0  0  0  0
    2.7108   -3.5147   -0.1528 C   0  0  0  0  0  0  0  0  0  0  0  0
    1.6296   -3.5425   -0.9987 C   0  0  0  0  0  0  0  0  0  0  0  0
    3.5898    0.1379    0.0539 C   0  0  0  0  0  0  0  0  0  0  0  0
    4.9007   -0.1201    0.5110 C   0  0  0  0  0  0  0  0  0  0  0  0
    5.2615   -1.3944    1.0190 C   0  0  0  0  0  0  0  0  0  0  0  0
    4.4522   -2.4402    0.8923 N   0  0  0  0  0  0  0  0  0  0  0  0
    3.3506    1.5057   -0.3136 C   0  0  0  0  0  0  0  0  0  0  0  0
    4.5090    2.3118   -0.6314 C   0  0  0  0  0  0  0  0  0  0  0  0
    5.7318    2.0024   -0.2353 N   0  0  0  0  0  0  0  0  0  0  0  0
    5.9199    0.8653    0.4347 C   0  0  0  0  0  0  0  0  0  0  0  0
    7.1925    0.6137    0.9837 C   0  0  0  0  0  0  0  0  0  0  0  0
    7.4981   -0.5860    1.6173 C   0  0  0  0  0  0  0  0  0  0  0  0
    6.5281   -1.5817    1.6125 C   0  0  0  0  0  0  0  0  0  0  0  0
    2.1213    2.1961   -0.3148 C   0  0  0  0  0  0  0  0  0  0  0  0
    2.0252    3.4156   -0.9882 C   0  0  0  0  0  0  0  0  0  0  0  0
    3.1198    4.0812   -1.5535 C   0  0  0  0  0  0  0  0  0  0  0  0
    4.3629    3.5480   -1.3075 C   0  0  0  0  0  0  0  0  0  0  0  0
    1.0788    1.7466    0.3808 O   0  0  0  0  0  0  0  0  0  0  0  0
    0.7746   -0.0278   -1.1993 O   0  0  0  0  0  0  0  0  0  0  0  0
   -1.0615   -4.3516    2.3470 C   0  0  0  0  0  0  0  0  0  0  0  0
    0.4577   -4.3343    2.5544 C   0  0  0  0  0  0  0  0  0  0  0  0
   -1.4870   -5.7404    1.8602 C   0  0  0  0  0  0  0  0  0  0  0  0
   -1.7552   -4.0652    3.6896 C   0  0  0  0  0  0  0  0  0  0  0  0
   -2.6632    5.7613    0.8298 C   0  0  0  0  0  0  0  0  0  0  0  0
   -3.2743    5.8457    2.2359 C   0  0  0  0  0  0  0  0  0  0  0  0
   -1.1935    6.1790    0.9145 C   0  0  0  0  0  0  0  0  0  0  0  0
   -3.3916    6.7267   -0.1155 C   0  0  0  0  0  0  0  0  0  0  0  0
   -8.6871   -1.0864   -2.3860 C   0  0  0  0  0  0  0  0  0  0  0  0
   -8.8654   -2.5554   -2.7750 C   0  0  0  0  0  0  0  0  0  0  0  0
   -8.8759   -0.2230   -3.6417 C   0  0  0  0  0  0  0  0  0  0  0  0
   -9.7477   -0.7241   -1.3368 C   0  0  0  0  0  0  0  0  0  0  0  0
    1.1570   -4.8080   -1.6890 C   0  0  0  0  0  0  0  0  0  0  0  0
   -0.3609   -4.7992   -1.9059 C   0  0  0  0  0  0  0  0  0  0  0  0
    1.5461   -6.0699   -0.9125 C   0  0  0  0  0  0  0  0  0  0  0  0
    1.8602   -4.8338   -3.0568 C   0  0  0  0  0  0  0  0  0  0  0  0
    2.9758    5.3649   -2.3511 C   0  0  0  0  0  0  0  0  0  0  0  0
    3.5941    5.1387   -3.7381 C   0  0  0  0  0  0  0  0  0  0  0  0
    3.7188    6.4950   -1.6255 C   0  0  0  0  0  0  0  0  0  0  0  0
    1.5147    5.7814   -2.5344 C   0  0  0  0  0  0  0  0  0  0  0  0
    8.8441   -0.8498    2.2691 C   0  0  0  0  0  0  0  0  0  0  0  0
    9.7782    0.3594    2.1861 C   0  0  0  0  0  0  0  0  0  0  0  0
    8.6111   -1.1850    3.7492 C   0  0  0  0  0  0  0  0  0  0  0  0
    9.5148   -2.0356    1.5615 C   0  0  0  0  0  0  0  0  0  0  0  0
  -10.7385   -0.9397   -1.7278 H   0  0  0  0  0  0  0  0  0  0  0  0
   -9.7098    0.3294   -1.0747 H   0  0  0  0  0  0  0  0  0  0  0  0
   -9.6015   -1.3091   -0.4313 H   0  0  0  0  0  0  0  0  0  0  0  0
   -9.8517   -2.6934   -3.2104 H   0  0  0  0  0  0  0  0  0  0  0  0
   -8.7920   -3.2055   -1.9066 H   0  0  0  0  0  0  0  0  0  0  0  0
   -8.1287   -2.8582   -3.5154 H   0  0  0  0  0  0  0  0  0  0  0  0
   -9.8497   -0.4224   -4.0812 H   0  0  0  0  0  0  0  0  0  0  0  0
   -8.1125   -0.4561   -4.3809 H   0  0  0  0  0  0  0  0  0  0  0  0
   -8.8198    0.8374   -3.4131 H   0  0  0  0  0  0  0  0  0  0  0  0
   -1.4593   -4.8097    4.4244 H   0  0  0  0  0  0  0  0  0  0  0  0
   -2.8364   -4.1000    3.5771 H   0  0  0  0  0  0  0  0  0  0  0  0
   -1.4812   -3.0811    4.0629 H   0  0  0  0  0  0  0  0  0  0  0  0
    0.7668   -5.2365    3.0764 H   0  0  0  0  0  0  0  0  0  0  0  0
    0.7674   -3.4862    3.1589 H   0  0  0  0  0  0  0  0  0  0  0  0
    0.9800   -4.2876    1.6021 H   0  0  0  0  0  0  0  0  0  0  0  0
   -1.0870   -6.4982    2.5294 H   0  0  0  0  0  0  0  0  0  0  0  0
   -1.1135   -5.9382    0.8592 H   0  0  0  0  0  0  0  0  0  0  0  0
   -2.5683   -5.8449    1.8586 H   0  0  0  0  0  0  0  0  0  0  0  0
   -0.6910   -5.7842   -2.2266 H   0  0  0  0  0  0  0  0  0  0  0  0
   -0.6487   -4.0920   -2.6789 H   0  0  0  0  0  0  0  0  0  0  0  0
   -0.8837   -4.5393   -0.9887 H   0  0  0  0  0  0  0  0  0  0  0  0
    1.5462   -5.7109   -3.6169 H   0  0  0  0  0  0  0  0  0  0  0  0
    2.9400   -4.8709   -2.9314 H   0  0  0  0  0  0  0  0  0  0  0  0
    1.6127   -3.9461   -3.6344 H   0  0  0  0  0  0  0  0  0  0  0  0
    1.1303   -6.9437   -1.4081 H   0  0  0  0  0  0  0  0  0  0  0  0
    1.1634   -6.0404    0.1039 H   0  0  0  0  0  0  0  0  0  0  0  0
    2.6244   -6.1971   -0.8782 H   0  0  0  0  0  0  0  0  0  0  0  0
   -3.1649    6.8539    2.6274 H   0  0  0  0  0  0  0  0  0  0  0  0
   -2.7678    5.1581    2.9096 H   0  0  0  0  0  0  0  0  0  0  0  0
   -4.3316    5.5975    2.2239 H   0  0  0  0  0  0  0  0  0  0  0  0
    3.5972    7.4264   -2.1727 H   0  0  0  0  0  0  0  0  0  0  0  0
    4.7811    6.2846   -1.5458 H   0  0  0  0  0  0  0  0  0  0  0  0
    3.3192    6.6300   -0.6228 H   0  0  0  0  0  0  0  0  0  0  0  0
   -1.1273    7.1757    1.3445 H   0  0  0  0  0  0  0  0  0  0  0  0
   -0.7413    6.2144   -0.0741 H   0  0  0  0  0  0  0  0  0  0  0  0
   -0.6264    5.5018    1.5492 H   0  0  0  0  0  0  0  0  0  0  0  0
   -3.2464    7.7504    0.2201 H   0  0  0  0  0  0  0  0  0  0  0  0
   -4.4586    6.5267   -0.1424 H   0  0  0  0  0  0  0  0  0  0  0  0
   -2.9997    6.6367   -1.1262 H   0  0  0  0  0  0  0  0  0  0  0  0
    3.5042    6.0423   -4.3357 H   0  0  0  0  0  0  0  0  0  0  0  0
    3.0785    4.3320   -4.2545 H   0  0  0  0  0  0  0  0  0  0  0  0
    4.6468    4.8816   -3.6655 H   0  0  0  0  0  0  0  0  0  0  0  0
    1.4694    6.6646   -3.1673 H   0  0  0  0  0  0  0  0  0  0  0  0
    1.0593    6.0349   -1.5796 H   0  0  0  0  0  0  0  0  0  0  0  0
    0.9372    4.9948   -3.0146 H   0  0  0  0  0  0  0  0  0  0  0  0
    9.6514   -1.8187    0.5043 H   0  0  0  0  0  0  0  0  0  0  0  0
    8.9247   -2.9431    1.6523 H   0  0  0  0  0  0  0  0  0  0  0  0
   10.4909   -2.2210    2.0019 H   0  0  0  0  0  0  0  0  0  0  0  0
    8.1179   -0.3562    4.2526 H   0  0  0  0  0  0  0  0  0  0  0  0
    9.5643   -1.3644    4.2393 H   0  0  0  0  0  0  0  0  0  0  0  0
    7.9974   -2.0734    3.8681 H   0  0  0  0  0  0  0  0  0  0  0  0
    9.3438    1.2273    2.6765 H   0  0  0  0  0  0  0  0  0  0  0  0
   10.0120    0.6080    1.1537 H   0  0  0  0  0  0  0  0  0  0  0  0
   10.7125    0.1252    2.6900 H   0  0  0  0  0  0  0  0  0  0  0  0
    7.9191    1.4023    0.8778 H   0  0  0  0  0  0  0  0  0  0  0  0
    6.7139   -2.5524    2.0447 H   0  0  0  0  0  0  0  0  0  0  0  0
    3.2272   -4.4033    0.1687 H   0  0  0  0  0  0  0  0  0  0  0  0
    5.2761    4.0523   -1.5766 H   0  0  0  0  0  0  0  0  0  0  0  0
   -4.9931    4.3626    0.3530 H   0  0  0  0  0  0  0  0  0  0  0  0
   -3.1251   -4.3085    0.4385 H   0  0  0  0  0  0  0  0  0  0  0  0
   -7.6979    1.2997   -1.4987 H   0  0  0  0  0  0  0  0  0  0  0  0
   -6.5639   -2.8319   -1.8122 H   0  0  0  0  0  0  0  0  0  0  0  0
    0.1292   -2.2595   -1.8685 H   0  0  0  0  0  0  0  0  0  0  0  0
    0.0219   -1.8471    1.9820 H   0  0  0  0  0  0  0  0  0  0  0  0
   -0.7612    3.9529   -0.1053 H   0  0  0  0  0  0  0  0  0  0  0  0
    1.0367    3.8347   -1.0618 H   0  0  0  0  0  0  0  0  0  0  0  0
  1135  1  0  0  0  0
  2  1  1  0  0  0  0
  2 22  1  0  0  0  0
  3  7  1  0  0  0  0
  3  2  2  0  0  0  0
  4  3  1  0  0  0  0
  5  4  2  0  0  0  0
  5  6  1  0  0  0  0
  6 48  1  0  0  0  0
  6  1  3  0  0  0  0
  7 11  1  0  0  0  0
  7  8  1  0  0  0  0
  9 17  1  0  0  0  0
  9  8  1  0  0  0  0
 10  4  1  0  0  0  0
 10  9  1  0  0  0  0
 11 18  2  0  0  0  0
 11 12  1  0  0  0  0
 12 21  2  0  0  0  0
 13 12  1  0  0  0  0
 14 13  1  0  0  0  0
 14  8  1  0  0  0  0
 15 16  1  0  0  0  0
 15 14  2  0  0  0  0
 16 17  1  0  0  0  0
 18 19  1  0  0  0  0
 19 20  2  0  0  0  0
 19136  1  0  0  0  0
 21 20  1  0  0  0  0
 23 18  1  0  0  0  0
 24 23  1  0  0  0  0
 24 22  1  0  0  0  0
 24 46  1  0  0  0  0
 25 26  1  0  0  0  0
 25134  1  0  0  0  0
 27 26  1  0  0  0  0
 27 31  2  0  0  0  0
 28 34  2  0  0  0  0
 28 27  1  0  0  0  0
 29 28  1  0  0  0  0
 29128  1  0  0  0  0
 29 30  1  0  0  0  0
 30 25  1  0  0  0  0
 30 60  1  0  0  0  0
 31 35  1  0  0  0  0
 32 31  1  0  0  0  0
 32 38  1  0  0  0  0
 33 32  2  0  0  0  0
 33 41  1  0  0  0  0
 34 33  1  0  0  0  0
 35 36  2  0  0  0  0
 35 42  1  0  0  0  0
 36 37  1  0  0  0  0
 38 37  1  0  0  0  0
 38 39  2  0  0  0  0
 39126  1  0  0  0  0
 40 39  1  0  0  0  0
 41127  1  0  0  0  0
 41 40  2  0  0  0  0
 42 46  1  0  0  0  0
 43 42  2  0  0  0  0
 43137  1  0  0  0  0
 44 45  2  0  0  0  0
 44 43  1  0  0  0  0
 45129  1  0  0  0  0
 45 36  1  0  0  0  0
 47 26  1  0  0  0  0
 47 24  1  0  0  0  0
 48 49  1  0  0  0  0
 49 84  1  0  0  0  0
 49 85  1  0  0  0  0
 49 86  1  0  0  0  0
 50 87  1  0  0  0  0
 50 48  1  0  0  0  0
 50 88  1  0  0  0  0
 51 83  1  0  0  0  0
 51 48  1  0  0  0  0
 52 20  1  0  0  0  0
 52 53  1  0  0  0  0
 52 54  1  0  0  0  0
 53100  1  0  0  0  0
 54107  1  0  0  0  0
 55 52  1  0  0  0  0
 56 16  1  0  0  0  0
 56 59  1  0  0  0  0
 57 56  1  0  0  0  0
 58 78  1  0  0  0  0
 58 56  1  0  0  0  0
 58 80  1  0  0  0  0
 59 72  1  0  0  0  0
 59 74  1  0  0  0  0
 59 73  1  0  0  0  0
 60 63  1  0  0  0  0
 60 62  1  0  0  0  0
 61 90  1  0  0  0  0
 61 60  1  0  0  0  0
 62 97  1  0  0  0  0
 62 96  1  0  0  0  0
 62 98  1  0  0  0  0
 63 94  1  0  0  0  0
 64 66  1  0  0  0  0
 64 44  1  0  0  0  0
 65113  1  0  0  0  0
 65 64  1  0  0  0  0
 66103  1  0  0  0  0
 66104  1  0  0  0  0
 67 64  1  0  0  0  0
 67115  1  0  0  0  0
 68 40  1  0  0  0  0
 68 70  1  0  0  0  0
 69123  1  0  0  0  0
 69 68  1  0  0  0  0
 70121  1  0  0  0  0
 70122  1  0  0  0  0
 70120  1  0  0  0  0
 71119  1  0  0  0  0
 71118  1  0  0  0  0
 71 68  1  0  0  0  0
 75 57  1  0  0  0  0
 76 57  1  0  0  0  0
 77 57  1  0  0  0  0
 79 58  1  0  0  0  0
 81 51  1  0  0  0  0
 82 51  1  0  0  0  0
 89 50  1  0  0  0  0
 91 61  1  0  0  0  0
 92 61  1  0  0  0  0
 93 63  1  0  0  0  0
 95 63  1  0  0  0  0
 99 53  1  0  0  0  0
101 53  1  0  0  0  0
102 66  1  0  0  0  0
105 54  1  0  0  0  0
106 54  1  0  0  0  0
108 55  1  0  0  0  0
109 55  1  0  0  0  0
110 55  1  0  0  0  0
111 65  1  0  0  0  0
112 65  1  0  0  0  0
114 67  1  0  0  0  0
116 67  1  0  0  0  0
117 71  1  0  0  0  0
124 69  1  0  0  0  0
125 69  1  0  0  0  0
130 21  1  0  0  0  0
131  5  1  0  0  0  0
132 15  1  0  0  0  0
133 17  1  0  0  0  0
M  CHG  1   1   1
M  END
