 energy: -391.779739762724 gnorm: 0.000557596953 xtb: 6.7.1 (edcfbbe)
          03212513583D

274296  0     0  0            999 V2000
   -0.3499   -0.2058    2.8964 C   0  0  0  0  0  0  0  0  0  0  0  0
   -1.0764    0.7409    2.1703 C   0  0  0  0  0  0  0  0  0  0  0  0
   -2.3692    0.4300    1.6688 C   0  0  0  0  0  0  0  0  0  0  0  0
   -2.7422   -0.9589    1.7951 C   0  0  0  0  0  0  0  0  0  0  0  0
   -1.9235   -1.8958    2.4651 C   0  0  0  0  0  0  0  0  0  0  0  0
   -0.7536   -1.5278    3.0857 C   0  0  0  0  0  0  0  0  0  0  0  0
   -3.3837    1.3376    1.2007 C   0  0  0  0  0  5  0  0  0  0  0  0
   -4.6646    0.7758    1.0054 C   0  0  0  0  0  5  0  0  0  0  0  0
   -4.8466   -0.6301    0.9575 C   0  0  0  0  0  5  0  0  0  0  0  0
   -3.8863   -1.4671    1.3364 N   0  0  0  0  0  4  0  0  0  0  0  0
   -3.3347    2.7636    0.9847 C   0  0  0  0  0  0  0  0  0  0  0  0
   -4.5794    3.4884    1.0623 C   0  0  0  0  0  0  0  0  0  0  0  0
   -5.7744    2.9079    1.0276 N   0  0  0  0  0  0  0  0  0  0  0  0
   -5.8218    1.5866    0.8558 C   0  0  0  0  0  0  0  0  0  0  0  0
   -7.0604    0.9982    0.5457 C   0  0  0  0  0  0  0  0  0  0  0  0
   -7.1920   -0.3677    0.3154 C   0  0  0  0  0  5  0  0  0  0  0  0
   -6.0850   -1.1683    0.5388 C   0  0  0  0  0  5  0  0  0  0  0  0
   -2.2329    3.5348    0.5495 C   0  0  0  0  0  0  0  0  0  0  0  0
   -2.3078    4.9269    0.5119 C   0  0  0  0  0  0  0  0  0  0  0  0
   -3.4714    5.6433    0.7964 C   0  0  0  0  0  0  0  0  0  0  0  0
   -4.6033    4.9047    1.0483 C   0  0  0  0  0  0  0  0  0  0  0  0
   -0.4880    1.9331    2.0696 O   0  0  0  0  0  0  0  0  0  0  0  0
   -1.1564    2.9690    0.0156 O   0  0  0  0  0  0  0  0  0  0  0  0
   -0.0251    2.5144    0.8051 B   0  0  0  0  0  0  0  0  0  0  0  0
    0.8378   -0.6159   -0.3990 C   0  0  0  0  0  5  0  0  0  0  0  0
    1.3307    0.5565    0.1627 C   0  0  0  0  0  5  0  0  0  0  0  0
    2.5229    0.5495    0.9296 C   0  0  0  0  0  0  0  0  0  0  0  0
    3.0180   -0.7643    1.2510 C   0  0  0  0  0  0  0  0  0  0  0  0
    2.4623   -1.9341    0.6773 C   0  0  0  0  0  5  0  0  0  0  0  0
    1.4171   -1.8737   -0.2089 C   0  0  0  0  0  5  0  0  0  0  0  0
    3.3461    1.6818    1.2588 C   0  0  0  0  0  0  0  0  0  0  0  0
    4.5751    1.3532    1.8784 C   0  0  0  0  0  0  0  0  0  0  0  0
    4.8356    0.0455    2.3700 C   0  0  0  0  0  0  0  0  0  0  0  0
    4.0633   -0.9846    2.0470 N   0  0  0  0  0  0  0  0  0  0  0  0
    3.1946    3.0754    0.8929 C   0  0  0  0  0  0  0  0  0  0  0  0
    4.4322    3.8158    0.7608 C   0  0  0  0  0  0  0  0  0  0  0  0
    5.5850    3.4415    1.3052 N   0  0  0  0  0  0  0  0  0  0  0  0
    5.6350    2.2933    1.9760 C   0  0  0  0  0  0  0  0  0  0  0  0
    6.8043    1.9790    2.6947 C   0  0  0  0  0  0  0  0  0  0  0  0
    6.9856    0.7434    3.3079 C   0  0  0  0  0  0  0  0  0  0  0  0
    5.9972   -0.2108    3.1328 C   0  0  0  0  0  0  0  0  0  0  0  0
    2.0328    3.8753    0.7094 C   0  0  0  0  0  0  0  0  0  0  0  0
    2.1402    5.1241    0.0871 C   0  0  0  0  0  0  0  0  0  0  0  0
    3.3433    5.7197   -0.2873 C   0  0  0  0  0  0  0  0  0  0  0  0
    4.4859    5.0681    0.1065 C   0  0  0  0  0  0  0  0  0  0  0  0
    0.8273    3.6217    1.2078 O   0  0  0  0  0  0  0  0  0  0  0  0
    0.6693    1.6626   -0.1464 O   0  0  0  0  0  0  0  0  0  0  0  0
    0.0526   -2.5295    3.8976 C   0  0  0  0  0  0  0  0  0  0  0  0
    1.3291   -1.9221    4.4840 C   0  0  0  0  0  0  0  0  0  0  0  0
    0.4402   -3.7053    2.9920 C   0  0  0  0  0  0  0  0  0  0  0  0
   -0.7993   -3.0538    5.0601 C   0  0  0  0  0  0  0  0  0  0  0  0
   -3.5340    7.1602    0.7215 C   0  0  0  0  0  0  0  0  0  0  0  0
   -4.1147    7.7188    2.0265 C   0  0  0  0  0  0  0  0  0  0  0  0
   -2.1561    7.7913    0.5034 C   0  0  0  0  0  0  0  0  0  0  0  0
   -4.4421    7.5478   -0.4542 C   0  0  0  0  0  0  0  0  0  0  0  0
   -8.5341   -0.9241   -0.1337 C   0  0  0  0  0  0  0  0  0  0  0  0
   -8.4622   -2.4114   -0.4895 C   0  0  0  0  0  0  0  0  0  0  0  0
   -9.0012   -0.1613   -1.3815 C   0  0  0  0  0  0  0  0  0  0  0  0
   -9.5489   -0.7357    1.0021 C   0  0  0  0  0  0  0  0  0  0  0  0
    0.8862   -3.0581   -0.9965 C   0  0  0  0  0  0  0  0  0  0  0  0
   -0.6081   -3.2498   -0.7069 C   0  0  0  0  0  0  0  0  0  0  0  0
    1.6256   -4.3588   -0.6724 C   0  0  0  0  0  0  0  0  0  0  0  0
    1.0860   -2.7563   -2.4898 C   0  0  0  0  0  0  0  0  0  0  0  0
    3.4172    7.0467   -1.0222 C   0  0  0  0  0  0  0  0  0  0  0  0
    4.2389    6.8485   -2.3031 C   0  0  0  0  0  0  0  0  0  0  0  0
    4.1030    8.0811   -0.1195 C   0  0  0  0  0  0  0  0  0  0  0  0
    2.0354    7.5779   -1.4116 C   0  0  0  0  0  0  0  0  0  0  0  0
    8.2571    0.4751    4.0952 C   0  0  0  0  0  0  0  0  0  0  0  0
    8.2609    1.3794    5.3353 C   0  0  0  0  0  0  0  0  0  0  0  0
    8.3526   -0.9807    4.5564 C   0  0  0  0  0  0  0  0  0  0  0  0
    9.4765    0.7824    3.2139 C   0  0  0  0  0  0  0  0  0  0  0  0
  -10.5208   -1.1209    0.7022 H   0  0  0  0  0  0  0  0  0  0  0  0
   -9.6601    0.3143    1.2583 H   0  0  0  0  0  0  0  0  0  0  0  0
   -9.2261   -1.2713    1.8926 H   0  0  0  0  0  0  0  0  0  0  0  0
   -9.4305   -2.7405   -0.8605 H   0  0  0  0  0  0  0  0  0  0  0  0
   -8.2166   -3.0158    0.3790 H   0  0  0  0  0  0  0  0  0  0  0  0
   -7.7244   -2.5889   -1.2686 H   0  0  0  0  0  0  0  0  0  0  0  0
   -9.9428   -0.5732   -1.7376 H   0  0  0  0  0  0  0  0  0  0  0  0
   -8.2635   -0.2518   -2.1761 H   0  0  0  0  0  0  0  0  0  0  0  0
   -9.1517    0.8939   -1.1740 H   0  0  0  0  0  0  0  0  0  0  0  0
   -0.2993   -3.8999    5.5286 H   0  0  0  0  0  0  0  0  0  0  0  0
   -1.7845   -3.3740    4.7270 H   0  0  0  0  0  0  0  0  0  0  0  0
   -0.9106   -2.2778    5.8113 H   0  0  0  0  0  0  0  0  0  0  0  0
    1.8455   -2.6776    5.0739 H   0  0  0  0  0  0  0  0  0  0  0  0
    1.0945   -1.0939    5.1490 H   0  0  0  0  0  0  0  0  0  0  0  0
    2.0062   -1.5860    3.7021 H   0  0  0  0  0  0  0  0  0  0  0  0
    1.0725   -4.4015    3.5393 H   0  0  0  0  0  0  0  0  0  0  0  0
    0.9920   -3.3348    2.1338 H   0  0  0  0  0  0  0  0  0  0  0  0
   -0.4390   -4.2439    2.6462 H   0  0  0  0  0  0  0  0  0  0  0  0
   -0.9823   -4.1167   -1.2473 H   0  0  0  0  0  0  0  0  0  0  0  0
   -1.1868   -2.3835   -1.0136 H   0  0  0  0  0  0  0  0  0  0  0  0
   -0.7740   -3.4027    0.3555 H   0  0  0  0  0  0  0  0  0  0  0  0
    0.7146   -3.5838   -3.0906 H   0  0  0  0  0  0  0  0  0  0  0  0
    2.1428   -2.6176   -2.7082 H   0  0  0  0  0  0  0  0  0  0  0  0
    0.5567   -1.8545   -2.7836 H   0  0  0  0  0  0  0  0  0  0  0  0
    1.2334   -5.1616   -1.2934 H   0  0  0  0  0  0  0  0  0  0  0  0
    1.4911   -4.6430    0.3674 H   0  0  0  0  0  0  0  0  0  0  0  0
    2.6887   -4.2622   -0.8794 H   0  0  0  0  0  0  0  0  0  0  0  0
   -4.2247    8.7989    1.9533 H   0  0  0  0  0  0  0  0  0  0  0  0
   -3.4481    7.4978    2.8565 H   0  0  0  0  0  0  0  0  0  0  0  0
   -5.0885    7.2898    2.2435 H   0  0  0  0  0  0  0  0  0  0  0  0
    4.1502    9.0441   -0.6235 H   0  0  0  0  0  0  0  0  0  0  0  0
    5.1148    7.7749    0.1299 H   0  0  0  0  0  0  0  0  0  0  0  0
    3.5445    8.2024    0.8061 H   0  0  0  0  0  0  0  0  0  0  0  0
   -2.2448    8.8756    0.5348 H   0  0  0  0  0  0  0  0  0  0  0  0
   -1.7484    7.5179   -0.4667 H   0  0  0  0  0  0  0  0  0  0  0  0
   -1.4611    7.4846    1.2818 H   0  0  0  0  0  0  0  0  0  0  0  0
   -4.4740    8.6300   -0.5625 H   0  0  0  0  0  0  0  0  0  0  0  0
   -5.4554    7.1878   -0.3001 H   0  0  0  0  0  0  0  0  0  0  0  0
   -4.0642    7.1186   -1.3796 H   0  0  0  0  0  0  0  0  0  0  0  0
    4.3079    7.7847   -2.8530 H   0  0  0  0  0  0  0  0  0  0  0  0
    3.7650    6.1065   -2.9420 H   0  0  0  0  0  0  0  0  0  0  0  0
    5.2456    6.5099   -2.0759 H   0  0  0  0  0  0  0  0  0  0  0  0
    2.1483    8.4945   -1.9873 H   0  0  0  0  0  0  0  0  0  0  0  0
    1.4407    7.8077   -0.5307 H   0  0  0  0  0  0  0  0  0  0  0  0
    1.5011    6.8564   -2.0251 H   0  0  0  0  0  0  0  0  0  0  0  0
    9.5316    1.8360    2.9565 H   0  0  0  0  0  0  0  0  0  0  0  0
    9.4332    0.2054    2.2924 H   0  0  0  0  0  0  0  0  0  0  0  0
   10.3901    0.5179    3.7421 H   0  0  0  0  0  0  0  0  0  0  0  0
    7.5250   -1.2312    5.2139 H   0  0  0  0  0  0  0  0  0  0  0  0
    9.2814   -1.1233    5.1054 H   0  0  0  0  0  0  0  0  0  0  0  0
    8.3580   -1.6602    3.7068 H   0  0  0  0  0  0  0  0  0  0  0  0
    7.4393    1.1043    5.9942 H   0  0  0  0  0  0  0  0  0  0  0  0
    8.1552    2.4255    5.0582 H   0  0  0  0  0  0  0  0  0  0  0  0
    9.1984    1.2639    5.8757 H   0  0  0  0  0  0  0  0  0  0  0  0
    7.5582    2.7487    2.7363 H   0  0  0  0  0  0  0  0  0  0  0  0
    6.0831   -1.2065    3.5321 H   0  0  0  0  0  0  0  0  0  0  0  0
    2.9633   -2.8523    0.9352 H   0  0  0  0  0  0  0  0  0  0  0  0
    5.4694    5.4942   -0.0056 H   0  0  0  0  0  0  0  0  0  0  0  0
   -5.5757    5.3560    1.1623 H   0  0  0  0  0  0  0  0  0  0  0  0
   -2.3123   -2.9010    2.5151 H   0  0  0  0  0  0  0  0  0  0  0  0
   -7.8997    1.6696    0.4618 H   0  0  0  0  0  0  0  0  0  0  0  0
   -6.1233   -2.2380    0.4157 H   0  0  0  0  0  0  0  0  0  0  0  0
   -0.0378   -0.4948   -1.0173 H   0  0  0  0  0  0  0  0  0  0  0  0
    0.5794    0.1516    3.3091 H   0  0  0  0  0  0  0  0  0  0  0  0
   -1.4025    5.4219    0.2052 H   0  0  0  0  0  0  0  0  0  0  0  0
    1.2010    5.6283   -0.0667 H   0  0  0  0  0  0  0  0  0  0  0  0
   -1.9742   -1.3069   10.4971 C   0  0  0  0  0  0  0  0  0  0  0  0
   -1.8654   -0.9363    9.1627 C   0  0  0  0  0  0  0  0  0  0  0  0
   -2.6460   -1.5748    8.1638 C   0  0  0  0  0  0  0  0  0  0  0  0
   -3.3441   -2.7526    8.6121 C   0  0  0  0  0  0  0  0  0  0  0  0
   -3.3870   -3.1189    9.9796 C   0  0  0  0  0  0  0  0  0  0  0  0
   -2.7531   -2.3789   10.9439 C   0  0  0  0  0  0  0  0  0  0  0  0
   -2.9070   -1.1160    6.8248 C   0  0  0  0  0  5  0  0  0  0  0  0
   -3.8052   -1.9192    6.0845 C   0  0  0  0  0  5  0  0  0  0  0  0
   -4.2143   -3.1976    6.5489 C   0  0  0  0  0  5  0  0  0  0  0  0
   -4.0037   -3.5785    7.8017 N   0  0  0  0  0  4  0  0  0  0  0  0
   -2.5457    0.1297    6.1906 C   0  0  0  0  0  0  0  0  0  0  0  0
   -3.4744    0.6089    5.1855 C   0  0  0  0  0  0  0  0  0  0  0  0
   -4.3091   -0.1800    4.5251 N   0  0  0  0  0  0  0  0  0  0  0  0
   -4.3799   -1.4658    4.8691 C   0  0  0  0  0  0  0  0  0  0  0  0
   -5.1330   -2.3423    4.0731 C   0  0  0  0  0  0  0  0  0  0  0  0
   -5.3494   -3.6688    4.4388 C   0  0  0  0  0  5  0  0  0  0  0  0
   -4.9200   -4.0714    5.6897 C   0  0  0  0  0  5  0  0  0  0  0  0
   -1.4051    0.9644    6.3411 C   0  0  0  0  0  0  0  0  0  0  0  0
   -1.4881    2.2979    5.9353 C   0  0  0  0  0  0  0  0  0  0  0  0
   -2.5779    2.8589    5.2634 C   0  0  0  0  0  0  0  0  0  0  0  0
   -3.5189    1.9737    4.8068 C   0  0  0  0  0  0  0  0  0  0  0  0
   -1.0133    0.0522    8.9082 O   0  0  0  0  0  0  0  0  0  0  0  0
   -0.2000    0.5779    6.7384 O   0  0  0  0  0  0  0  0  0  0  0  0
    0.1017   -0.1139    7.9890 B   0  0  0  0  0  0  0  0  0  0  0  0
    0.3433   -3.5101    8.7191 C   0  0  0  0  0  5  0  0  0  0  0  0
    1.0985   -2.3787    8.3884 C   0  0  0  0  0  5  0  0  0  0  0  0
    2.4805   -2.3177    8.7361 C   0  0  0  0  0  0  0  0  0  0  0  0
    2.9563   -3.4375    9.5172 C   0  0  0  0  0  0  0  0  0  0  0  0
    2.1124   -4.4995    9.9072 C   0  0  0  0  0  5  0  0  0  0  0  0
    0.8232   -4.5977    9.4482 C   0  0  0  0  0  5  0  0  0  0  0  0
    3.4906   -1.3873    8.2953 C   0  0  0  0  0  0  0  0  0  0  0  0
    4.8350   -1.7859    8.4739 C   0  0  0  0  0  0  0  0  0  0  0  0
    5.1689   -2.8839    9.3083 C   0  0  0  0  0  0  0  0  0  0  0  0
    4.2283   -3.6435    9.8564 N   0  0  0  0  0  0  0  0  0  0  0  0
    3.3519   -0.1027    7.6659 C   0  0  0  0  0  0  0  0  0  0  0  0
    4.4716    0.4168    6.9234 C   0  0  0  0  0  0  0  0  0  0  0  0
    5.6960   -0.0963    6.9897 N   0  0  0  0  0  0  0  0  0  0  0  0
    5.9076   -1.0974    7.8461 C   0  0  0  0  0  0  0  0  0  0  0  0
    7.2408   -1.4791    8.0966 C   0  0  0  0  0  0  0  0  0  0  0  0
    7.5625   -2.5071    8.9705 C   0  0  0  0  0  0  0  0  0  0  0  0
    6.5182   -3.1983    9.5680 C   0  0  0  0  0  0  0  0  0  0  0  0
    2.2603    0.7739    7.8107 C   0  0  0  0  0  0  0  0  0  0  0  0
    2.2228    1.9740    7.1141 C   0  0  0  0  0  0  0  0  0  0  0  0
    3.2216    2.3766    6.2184 C   0  0  0  0  0  0  0  0  0  0  0  0
    4.3414    1.5888    6.1391 C   0  0  0  0  0  0  0  0  0  0  0  0
    1.2540    0.4896    8.6464 O   0  0  0  0  0  0  0  0  0  0  0  0
    0.4426   -1.5001    7.6258 O   0  0  0  0  0  0  0  0  0  0  0  0
   -2.8587   -2.6615   12.4312 C   0  0  0  0  0  0  0  0  0  0  0  0
   -1.4630   -2.6633   13.0706 C   0  0  0  0  0  0  0  0  0  0  0  0
   -3.5308   -4.0073   12.7157 C   0  0  0  0  0  0  0  0  0  0  0  0
   -3.7053   -1.5437   13.0573 C   0  0  0  0  0  0  0  0  0  0  0  0
   -2.6384    4.3553    5.0344 C   0  0  0  0  0  0  0  0  0  0  0  0
   -4.0001    4.7758    4.4786 C   0  0  0  0  0  0  0  0  0  0  0  0
   -2.4372    5.0759    6.3764 C   0  0  0  0  0  0  0  0  0  0  0  0
   -1.5299    4.7617    4.0543 C   0  0  0  0  0  0  0  0  0  0  0  0
   -6.0631   -4.5906    3.4654 C   0  0  0  0  0  0  0  0  0  0  0  0
   -5.1933   -4.7060    2.2044 C   0  0  0  0  0  0  0  0  0  0  0  0
   -7.4313   -3.9915    3.1142 C   0  0  0  0  0  0  0  0  0  0  0  0
   -6.2863   -5.9928    4.0369 C   0  0  0  0  0  0  0  0  0  0  0  0
    0.0270   -5.8706    9.6839 C   0  0  0  0  0  0  0  0  0  0  0  0
   -1.3742   -5.8109    9.0765 C   0  0  0  0  0  0  0  0  0  0  0  0
   -0.1019   -6.1297   11.1895 C   0  0  0  0  0  0  0  0  0  0  0  0
    0.7872   -7.0332    9.0267 C   0  0  0  0  0  0  0  0  0  0  0  0
    3.0044    3.6044    5.3541 C   0  0  0  0  0  0  0  0  0  0  0  0
    4.3095    4.1230    4.7451 C   0  0  0  0  0  0  0  0  0  0  0  0
    2.3724    4.7504    6.1544 C   0  0  0  0  0  0  0  0  0  0  0  0
    2.0585    3.1617    4.2295 C   0  0  0  0  0  0  0  0  0  0  0  0
    8.9978   -2.8983    9.2843 C   0  0  0  0  0  0  0  0  0  0  0  0
   10.0164   -2.0384    8.5320 C   0  0  0  0  0  0  0  0  0  0  0  0
    9.2367   -2.7273   10.7906 C   0  0  0  0  0  0  0  0  0  0  0  0
    9.2136   -4.3640    8.8837 C   0  0  0  0  0  0  0  0  0  0  0  0
   -6.7776   -6.6132    3.2902 H   0  0  0  0  0  0  0  0  0  0  0  0
   -6.9218   -5.9594    4.9188 H   0  0  0  0  0  0  0  0  0  0  0  0
   -5.3425   -6.4658    4.2967 H   0  0  0  0  0  0  0  0  0  0  0  0
   -5.7243   -5.2580    1.4316 H   0  0  0  0  0  0  0  0  0  0  0  0
   -4.2756   -5.2435    2.4359 H   0  0  0  0  0  0  0  0  0  0  0  0
   -4.9198   -3.7274    1.8180 H   0  0  0  0  0  0  0  0  0  0  0  0
   -7.9632   -4.6530    2.4331 H   0  0  0  0  0  0  0  0  0  0  0  0
   -7.3272   -3.0185    2.6431 H   0  0  0  0  0  0  0  0  0  0  0  0
   -8.0316   -3.8724    4.0141 H   0  0  0  0  0  0  0  0  0  0  0  0
   -3.7826   -1.6891   14.1326 H   0  0  0  0  0  0  0  0  0  0  0  0
   -4.7075   -1.5458   12.6337 H   0  0  0  0  0  0  0  0  0  0  0  0
   -3.2584   -0.5707   12.8700 H   0  0  0  0  0  0  0  0  0  0  0  0
   -1.5240   -3.0242   14.0951 H   0  0  0  0  0  0  0  0  0  0  0  0
   -1.0344   -1.6659   13.0934 H   0  0  0  0  0  0  0  0  0  0  0  0
   -0.7861   -3.3087   12.5153 H   0  0  0  0  0  0  0  0  0  0  0  0
   -3.5540   -4.1840   13.7890 H   0  0  0  0  0  0  0  0  0  0  0  0
   -2.9838   -4.8224   12.2483 H   0  0  0  0  0  0  0  0  0  0  0  0
   -4.5558   -4.0169   12.3540 H   0  0  0  0  0  0  0  0  0  0  0  0
   -1.8955   -6.7462    9.2701 H   0  0  0  0  0  0  0  0  0  0  0  0
   -1.3310   -5.6675    7.9996 H   0  0  0  0  0  0  0  0  0  0  0  0
   -1.9534   -5.0026    9.5124 H   0  0  0  0  0  0  0  0  0  0  0  0
    0.2314   -7.9599    9.1530 H   0  0  0  0  0  0  0  0  0  0  0  0
    1.7722   -7.1612    9.4665 H   0  0  0  0  0  0  0  0  0  0  0  0
    0.9103   -6.8474    7.9619 H   0  0  0  0  0  0  0  0  0  0  0  0
   -0.6440   -7.0568   11.3636 H   0  0  0  0  0  0  0  0  0  0  0  0
   -0.6481   -5.3180   11.6634 H   0  0  0  0  0  0  0  0  0  0  0  0
    0.8725   -6.2092   11.6631 H   0  0  0  0  0  0  0  0  0  0  0  0
   -4.0674    5.8608    4.4563 H   0  0  0  0  0  0  0  0  0  0  0  0
   -4.8046    4.4004    5.1075 H   0  0  0  0  0  0  0  0  0  0  0  0
   -4.1405    4.4103    3.4660 H   0  0  0  0  0  0  0  0  0  0  0  0
    2.3203    5.6436    5.5354 H   0  0  0  0  0  0  0  0  0  0  0  0
    2.9711    4.9746    7.0350 H   0  0  0  0  0  0  0  0  0  0  0  0
    1.3629    4.5138    6.4766 H   0  0  0  0  0  0  0  0  0  0  0  0
   -2.4720    6.1530    6.2261 H   0  0  0  0  0  0  0  0  0  0  0  0
   -1.4813    4.8294    6.8286 H   0  0  0  0  0  0  0  0  0  0  0  0
   -3.2245    4.7991    7.0746 H   0  0  0  0  0  0  0  0  0  0  0  0
   -1.6736    5.7912    3.7332 H   0  0  0  0  0  0  0  0  0  0  0  0
   -1.5306    4.1207    3.1760 H   0  0  0  0  0  0  0  0  0  0  0  0
   -0.5519    4.6830    4.5196 H   0  0  0  0  0  0  0  0  0  0  0  0
    4.1098    5.0141    4.1533 H   0  0  0  0  0  0  0  0  0  0  0  0
    4.7589    3.3870    4.0857 H   0  0  0  0  0  0  0  0  0  0  0  0
    5.0237    4.3790    5.5251 H   0  0  0  0  0  0  0  0  0  0  0  0
    1.8168    3.9911    3.5699 H   0  0  0  0  0  0  0  0  0  0  0  0
    1.1321    2.7560    4.6272 H   0  0  0  0  0  0  0  0  0  0  0  0
    2.5269    2.3799    3.6363 H   0  0  0  0  0  0  0  0  0  0  0  0
    9.0220   -4.4959    7.8209 H   0  0  0  0  0  0  0  0  0  0  0  0
    8.5529   -5.0273    9.4344 H   0  0  0  0  0  0  0  0  0  0  0  0
   10.2404   -4.6589    9.0884 H   0  0  0  0  0  0  0  0  0  0  0  0
    9.0659   -1.6936   11.0840 H   0  0  0  0  0  0  0  0  0  0  0  0
   10.2625   -2.9910   11.0382 H   0  0  0  0  0  0  0  0  0  0  0  0
    8.5724   -3.3607   11.3715 H   0  0  0  0  0  0  0  0  0  0  0  0
    9.9135   -0.9884    8.7952 H   0  0  0  0  0  0  0  0  0  0  0  0
    9.9026   -2.1518    7.4566 H   0  0  0  0  0  0  0  0  0  0  0  0
   11.0226   -2.3545    8.7988 H   0  0  0  0  0  0  0  0  0  0  0  0
    7.9981   -0.9091    7.5869 H   0  0  0  0  0  0  0  0  0  0  0  0
    6.6926   -4.0144   10.2506 H   0  0  0  0  0  0  0  0  0  0  0  0
    2.5825   -5.2728   10.4925 H   0  0  0  0  0  0  0  0  0  0  0  0
    5.1963    1.8531    5.5408 H   0  0  0  0  0  0  0  0  0  0  0  0
   -4.3130    2.2489    4.1339 H   0  0  0  0  0  0  0  0  0  0  0  0
   -3.9822   -3.9882   10.2037 H   0  0  0  0  0  0  0  0  0  0  0  0
   -5.5310   -1.9373    3.1593 H   0  0  0  0  0  0  0  0  0  0  0  0
   -5.1201   -5.0553    6.0794 H   0  0  0  0  0  0  0  0  0  0  0  0
   -0.6700   -3.5030    8.3522 H   0  0  0  0  0  0  0  0  0  0  0  0
   -1.3828   -0.7232   11.1840 H   0  0  0  0  0  0  0  0  0  0  0  0
   -0.6269    2.9051    6.1606 H   0  0  0  0  0  0  0  0  0  0  0  0
    1.3519    2.5813    7.2886 H   0  0  0  0  0  0  0  0  0  0  0  0
  1135  1  0  0  0  0
  2  1  1  0  0  0  0
  2 22  1  0  0  0  0
  3  7  1  0  0  0  0
  3  2  2  0  0  0  0
  4  3  1  0  0  0  0
  5  4  2  0  0  0  0
  5  6  1  0  0  0  0
  6 48  1  0  0  0  0
  6  1  3  0  0  0  0
  7 11  1  0  0  0  0
  7  8  2  0  0  0  0
  9 17  1  0  0  0  0
  9  8  1  0  0  0  0
 10  4  1  0  0  0  0
 10  9  2  0  0  0  0
 11 18  2  0  0  0  0
 11 12  1  0  0  0  0
 12 21  2  0  0  0  0
 13 12  1  0  0  0  0
 14 13  1  0  0  0  0
 14  8  1  0  0  0  0
 15 16  1  0  0  0  0
 15 14  2  0  0  0  0
 16 17  2  0  0  0  0
 18 19  1  0  0  0  0
 19 20  2  0  0  0  0
 19136  1  0  0  0  0
 21 20  1  0  0  0  0
 23 18  1  0  0  0  0
 24 23  1  0  0  0  0
 24 22  1  0  0  0  0
 24 46  1  0  0  0  0
 25 26  2  0  0  0  0
 25134  1  0  0  0  0
 27 26  1  0  0  0  0
 27 31  2  0  0  0  0
 28 34  2  0  0  0  0
 28 27  1  0  0  0  0
 29 28  1  0  0  0  0
 29128  1  0  0  0  0
 29 30  2  0  0  0  0
 30 25  1  0  0  0  0
 30 60  1  0  0  0  0
 31 35  1  0  0  0  0
 32 31  1  0  0  0  0
 32 38  1  0  0  0  0
 33 32  2  0  0  0  0
 33 41  1  0  0  0  0
 34 33  1  0  0  0  0
 35 36  2  0  0  0  0
 35 42  1  0  0  0  0
 36 37  1  0  0  0  0
 38 37  1  0  0  0  0
 38 39  2  0  0  0  0
 39126  1  0  0  0  0
 40 39  1  0  0  0  0
 41127  1  0  0  0  0
 41 40  2  0  0  0  0
 42 46  1  0  0  0  0
 43 42  2  0  0  0  0
 43137  1  0  0  0  0
 44 45  2  0  0  0  0
 44 43  1  0  0  0  0
 45129  1  0  0  0  0
 45 36  1  0  0  0  0
 47 26  1  0  0  0  0
 47 24  1  0  0  0  0
 48 49  1  0  0  0  0
 49 84  1  0  0  0  0
 49 85  1  0  0  0  0
 49 86  1  0  0  0  0
 50 87  1  0  0  0  0
 50 48  1  0  0  0  0
 50 88  1  0  0  0  0
 51 83  1  0  0  0  0
 51 48  1  0  0  0  0
 52 20  1  0  0  0  0
 52 53  1  0  0  0  0
 52 54  1  0  0  0  0
 53100  1  0  0  0  0
 54107  1  0  0  0  0
 55 52  1  0  0  0  0
 56 16  1  0  0  0  0
 56 59  1  0  0  0  0
 57 56  1  0  0  0  0
 58 78  1  0  0  0  0
 58 56  1  0  0  0  0
 58 80  1  0  0  0  0
 59 72  1  0  0  0  0
 59 74  1  0  0  0  0
 59 73  1  0  0  0  0
 60 63  1  0  0  0  0
 60 62  1  0  0  0  0
 61 90  1  0  0  0  0
 61 60  1  0  0  0  0
 62 97  1  0  0  0  0
 62 96  1  0  0  0  0
 62 98  1  0  0  0  0
 63 94  1  0  0  0  0
 64 66  1  0  0  0  0
 64 44  1  0  0  0  0
 65113  1  0  0  0  0
 65 64  1  0  0  0  0
 66103  1  0  0  0  0
 66104  1  0  0  0  0
 67 64  1  0  0  0  0
 67115  1  0  0  0  0
 68 40  1  0  0  0  0
 68 70  1  0  0  0  0
 69123  1  0  0  0  0
 69 68  1  0  0  0  0
 70121  1  0  0  0  0
 70122  1  0  0  0  0
 70120  1  0  0  0  0
 71119  1  0  0  0  0
 71118  1  0  0  0  0
 71 68  1  0  0  0  0
 75 57  1  0  0  0  0
 76 57  1  0  0  0  0
 77 57  1  0  0  0  0
 79 58  1  0  0  0  0
 81 51  1  0  0  0  0
 82 51  1  0  0  0  0
 89 50  1  0  0  0  0
 91 61  1  0  0  0  0
 92 61  1  0  0  0  0
 93 63  1  0  0  0  0
 95 63  1  0  0  0  0
 99 53  1  0  0  0  0
101 53  1  0  0  0  0
102 66  1  0  0  0  0
105 54  1  0  0  0  0
106 54  1  0  0  0  0
108 55  1  0  0  0  0
109 55  1  0  0  0  0
110 55  1  0  0  0  0
111 65  1  0  0  0  0
112 65  1  0  0  0  0
114 67  1  0  0  0  0
116 67  1  0  0  0  0
117 71  1  0  0  0  0
124 69  1  0  0  0  0
125 69  1  0  0  0  0
130 21  1  0  0  0  0
131  5  1  0  0  0  0
132 15  1  0  0  0  0
133 17  1  0  0  0  0
138272  1  0  0  0  0
139138  1  0  0  0  0
139159  1  0  0  0  0
140144  1  0  0  0  0
140139  2  0  0  0  0
141140  1  0  0  0  0
142141  2  0  0  0  0
142143  1  0  0  0  0
143185  1  0  0  0  0
143138  3  0  0  0  0
144148  1  0  0  0  0
144145  2  0  0  0  0
146154  1  0  0  0  0
146145  1  0  0  0  0
147141  1  0  0  0  0
147146  2  0  0  0  0
148155  2  0  0  0  0
148149  1  0  0  0  0
149158  2  0  0  0  0
150149  1  0  0  0  0
151150  1  0  0  0  0
151145  1  0  0  0  0
152153  1  0  0  0  0
152151  2  0  0  0  0
153154  2  0  0  0  0
155156  1  0  0  0  0
156157  2  0  0  0  0
156273  1  0  0  0  0
158157  1  0  0  0  0
160155  1  0  0  0  0
161160  1  0  0  0  0
161159  1  0  0  0  0
161183  1  0  0  0  0
162163  2  0  0  0  0
162271  1  0  0  0  0
164163  1  0  0  0  0
164168  2  0  0  0  0
165171  2  0  0  0  0
165164  1  0  0  0  0
166165  1  0  0  0  0
166265  1  0  0  0  0
166167  2  0  0  0  0
167162  1  0  0  0  0
167197  1  0  0  0  0
168172  1  0  0  0  0
169168  1  0  0  0  0
169175  1  0  0  0  0
170169  2  0  0  0  0
170178  1  0  0  0  0
171170  1  0  0  0  0
172173  2  0  0  0  0
172179  1  0  0  0  0
173174  1  0  0  0  0
175174  1  0  0  0  0
175176  2  0  0  0  0
176263  1  0  0  0  0
177176  1  0  0  0  0
178264  1  0  0  0  0
178177  2  0  0  0  0
179183  1  0  0  0  0
180179  2  0  0  0  0
180274  1  0  0  0  0
181182  2  0  0  0  0
181180  1  0  0  0  0
182266  1  0  0  0  0
182173  1  0  0  0  0
184163  1  0  0  0  0
184161  1  0  0  0  0
185186  1  0  0  0  0
186221  1  0  0  0  0
186222  1  0  0  0  0
186223  1  0  0  0  0
187224  1  0  0  0  0
187185  1  0  0  0  0
187225  1  0  0  0  0
188220  1  0  0  0  0
188185  1  0  0  0  0
189157  1  0  0  0  0
189190  1  0  0  0  0
189191  1  0  0  0  0
190237  1  0  0  0  0
191244  1  0  0  0  0
192189  1  0  0  0  0
193153  1  0  0  0  0
193196  1  0  0  0  0
194193  1  0  0  0  0
195215  1  0  0  0  0
195193  1  0  0  0  0
195217  1  0  0  0  0
196209  1  0  0  0  0
196211  1  0  0  0  0
196210  1  0  0  0  0
197200  1  0  0  0  0
197199  1  0  0  0  0
198227  1  0  0  0  0
198197  1  0  0  0  0
199234  1  0  0  0  0
199233  1  0  0  0  0
199235  1  0  0  0  0
200231  1  0  0  0  0
201203  1  0  0  0  0
201181  1  0  0  0  0
202250  1  0  0  0  0
202201  1  0  0  0  0
203240  1  0  0  0  0
203241  1  0  0  0  0
204201  1  0  0  0  0
204252  1  0  0  0  0
205177  1  0  0  0  0
205207  1  0  0  0  0
206260  1  0  0  0  0
206205  1  0  0  0  0
207258  1  0  0  0  0
207259  1  0  0  0  0
207257  1  0  0  0  0
208256  1  0  0  0  0
208255  1  0  0  0  0
208205  1  0  0  0  0
212194  1  0  0  0  0
213194  1  0  0  0  0
214194  1  0  0  0  0
216195  1  0  0  0  0
218188  1  0  0  0  0
219188  1  0  0  0  0
226187  1  0  0  0  0
228198  1  0  0  0  0
229198  1  0  0  0  0
230200  1  0  0  0  0
232200  1  0  0  0  0
236190  1  0  0  0  0
238190  1  0  0  0  0
239203  1  0  0  0  0
242191  1  0  0  0  0
243191  1  0  0  0  0
245192  1  0  0  0  0
246192  1  0  0  0  0
247192  1  0  0  0  0
248202  1  0  0  0  0
249202  1  0  0  0  0
251204  1  0  0  0  0
253204  1  0  0  0  0
254208  1  0  0  0  0
261206  1  0  0  0  0
262206  1  0  0  0  0
267158  1  0  0  0  0
268142  1  0  0  0  0
269152  1  0  0  0  0
270154  1  0  0  0  0
M  END
