 energy: -127.255373307924 gnorm: 0.000285914020 xtb: 6.7.1 (edcfbbe)
          03032513443D

 78 82  0     0  0            999 V2000
    0.8836    3.3509   -3.1744 C   0  0  0  0  0  0  0  0  0  0  0  0
    2.5356   -3.0379   -0.2740 C   0  0  0  0  0  0  0  0  0  0  0  0
   -3.6802    1.4759   -1.8837 C   0  0  0  0  0  0  0  0  0  0  0  0
   -2.7389    0.5501   -1.4897 C   0  0  0  0  0  0  0  0  0  0  0  0
   -1.3552    0.8144   -1.6661 C   0  0  0  0  0  0  0  0  0  0  0  0
   -0.9798    1.9136   -2.4743 C   0  0  0  0  0  0  0  0  0  0  0  0
   -1.9344    2.8201   -2.8891 C   0  0  0  0  0  0  0  0  0  0  0  0
   -3.2854    2.6430   -2.5469 C   0  0  0  0  0  0  0  0  0  0  0  0
   -0.3305   -0.0212   -1.1208 C   0  0  0  0  0  0  0  0  0  0  0  0
    0.8949   -0.0830   -1.8393 C   0  0  0  0  0  0  0  0  0  0  0  0
    1.2064    0.9370   -2.7657 C   0  0  0  0  0  0  0  0  0  0  0  0
    0.3672    2.0544   -2.8092 N   0  0  0  0  0  0  0  0  0  0  0  0
   -0.4731   -0.8445    0.0245 C   0  0  0  0  0  0  0  0  0  0  0  0
    0.3915   -1.9628    0.1903 C   0  0  0  0  0  0  0  0  0  0  0  0
    1.5109   -2.0887   -0.6392 N   0  0  0  0  0  0  0  0  0  0  0  0
    1.7881   -1.1608   -1.6439 C   0  0  0  0  0  0  0  0  0  0  0  0
    2.8972   -1.2680   -2.4630 C   0  0  0  0  0  0  0  0  0  0  0  0
    3.1665   -0.2946   -3.4370 C   0  0  0  0  0  0  0  0  0  0  0  0
    2.3186    0.8130   -3.5716 C   0  0  0  0  0  0  0  0  0  0  0  0
   -1.4088   -0.5825    1.0596 C   0  0  0  0  0  0  0  0  0  0  0  0
   -1.6549   -1.5098    2.0442 C   0  0  0  0  0  0  0  0  0  0  0  0
   -0.9606   -2.7218    2.0625 C   0  0  0  0  0  0  0  0  0  0  0  0
    0.0959   -2.9107    1.1464 C   0  0  0  0  0  0  0  0  0  0  0  0
   -2.0915    0.6302    1.1347 O   0  0  0  0  0  0  0  0  0  0  0  0
   -3.0550   -0.6837   -0.9873 O   0  0  0  0  0  0  0  0  0  0  0  0
   -4.2344    3.6624   -2.9410 C   0  0  0  0  0  0  0  0  0  0  0  0
   -1.3038   -3.7150    3.0515 C   0  0  0  0  0  0  0  0  0  0  0  0
    4.3139   -0.3925   -4.3127 C   0  0  0  0  0  0  0  0  0  0  0  0
    4.6418    0.4194   -5.1616 O   0  0  0  0  0  0  0  0  0  0  0  0
    5.0567   -1.5304   -4.1088 O   0  0  0  0  0  0  0  0  0  0  0  0
    6.1781   -1.6672   -4.9507 C   0  0  0  0  0  0  0  0  0  0  0  0
   -3.9668    4.6968   -3.5284 O   0  0  0  0  0  0  0  0  0  0  0  0
   -5.5233    3.3551   -2.5833 O   0  0  0  0  0  0  0  0  0  0  0  0
   -6.5213    4.2897   -2.9290 C   0  0  0  0  0  0  0  0  0  0  0  0
   -2.1871   -3.6229    3.8875 O   0  0  0  0  0  0  0  0  0  0  0  0
   -0.5090   -4.8382    2.9741 O   0  0  0  0  0  0  0  0  0  0  0  0
   -0.7799   -5.8722    3.8928 C   0  0  0  0  0  0  0  0  0  0  0  0
   -4.7302    1.3167   -1.7040 H   0  0  0  0  0  0  0  0  0  0  0  0
   -1.6875    3.6944   -3.4671 H   0  0  0  0  0  0  0  0  0  0  0  0
   -2.3957   -1.3086    2.8027 H   0  0  0  0  0  0  0  0  0  0  0  0
    0.6358   -3.8382    1.2166 H   0  0  0  0  0  0  0  0  0  0  0  0
    3.5768   -2.0996   -2.4055 H   0  0  0  0  0  0  0  0  0  0  0  0
    2.5674    1.5380   -4.3300 H   0  0  0  0  0  0  0  0  0  0  0  0
    2.3957   -4.3699   -1.0187 C   0  0  0  0  0  0  0  0  0  0  0  0
    3.4880   -5.3506   -0.6132 C   0  0  0  0  0  0  0  0  0  0  0  0
    0.7870    4.3379   -2.0031 C   0  0  0  0  0  0  0  0  0  0  0  0
    1.3207    5.7100   -2.3920 C   0  0  0  0  0  0  0  0  0  0  0  0
   -1.2676    1.7480    1.3531 C   0  0  0  0  0  0  0  0  0  0  0  0
   -4.3410   -0.8806   -0.4682 C   0  0  0  0  0  0  0  0  0  0  0  0
   -7.2658    3.7942   -3.5562 H   0  0  0  0  0  0  0  0  0  0  0  0
   -6.0695    5.1234   -3.4737 H   0  0  0  0  0  0  0  0  0  0  0  0
   -6.9961    4.6570   -2.0161 H   0  0  0  0  0  0  0  0  0  0  0  0
    0.1151   -6.0581    4.4916 H   0  0  0  0  0  0  0  0  0  0  0  0
   -1.0468   -6.7771    3.3413 H   0  0  0  0  0  0  0  0  0  0  0  0
   -1.6076   -5.5757    4.5433 H   0  0  0  0  0  0  0  0  0  0  0  0
    6.6679   -2.5959   -4.6638 H   0  0  0  0  0  0  0  0  0  0  0  0
    6.8607   -0.8219   -4.8252 H   0  0  0  0  0  0  0  0  0  0  0  0
    5.8710   -1.7076   -5.9995 H   0  0  0  0  0  0  0  0  0  0  0  0
    2.4874   -3.2116    0.8049 H   0  0  0  0  0  0  0  0  0  0  0  0
    3.5169   -2.6006   -0.4827 H   0  0  0  0  0  0  0  0  0  0  0  0
    2.4440   -4.1824   -2.0929 H   0  0  0  0  0  0  0  0  0  0  0  0
    1.4145   -4.7956   -0.8021 H   0  0  0  0  0  0  0  0  0  0  0  0
    4.4708   -4.9409   -0.8389 H   0  0  0  0  0  0  0  0  0  0  0  0
    3.3774   -6.2918   -1.1474 H   0  0  0  0  0  0  0  0  0  0  0  0
    3.4392   -5.5540    0.4549 H   0  0  0  0  0  0  0  0  0  0  0  0
   -1.9152    2.6225    1.2933 H   0  0  0  0  0  0  0  0  0  0  0  0
   -0.4802    1.8355    0.5983 H   0  0  0  0  0  0  0  0  0  0  0  0
   -0.8025    1.7035    2.3474 H   0  0  0  0  0  0  0  0  0  0  0  0
   -4.3116   -1.8488    0.0314 H   0  0  0  0  0  0  0  0  0  0  0  0
   -5.1015   -0.9029   -1.2595 H   0  0  0  0  0  0  0  0  0  0  0  0
   -4.5947   -0.1064    0.2618 H   0  0  0  0  0  0  0  0  0  0  0  0
    1.2653    6.3955   -1.5491 H   0  0  0  0  0  0  0  0  0  0  0  0
    0.7353    6.1249   -3.2096 H   0  0  0  0  0  0  0  0  0  0  0  0
    2.3585    5.6412   -2.7131 H   0  0  0  0  0  0  0  0  0  0  0  0
    1.3611    3.9385   -1.1636 H   0  0  0  0  0  0  0  0  0  0  0  0
   -0.2529    4.4234   -1.6855 H   0  0  0  0  0  0  0  0  0  0  0  0
    0.3534    3.7536   -4.0456 H   0  0  0  0  0  0  0  0  0  0  0  0
    1.9335    3.2413   -3.4447 H   0  0  0  0  0  0  0  0  0  0  0  0
  1 46  1  0  0  0  0
  1 77  1  0  0  0  0
  1 78  1  0  0  0  0
  2 44  1  0  0  0  0
  2 59  1  0  0  0  0
  2 60  1  0  0  0  0
  3  4  2  0  0  0  0
  3 38  1  0  0  0  0
  4  5  1  0  0  0  0
  4 25  1  0  0  0  0
  5  6  2  0  0  0  0
  5  9  1  0  0  0  0
  6  7  1  0  0  0  0
  7  8  2  0  0  0  0
  7 39  1  0  0  0  0
  8  3  1  0  0  0  0
  8 26  1  0  0  0  0
  9 10  1  0  0  0  0
 10 11  2  0  0  0  0
 11 12  1  0  0  0  0
 12  1  1  0  0  0  0
 12  6  1  0  0  0  0
 13 14  2  0  0  0  0
 13 20  1  0  0  0  0
 13  9  1  0  0  0  0
 14 15  1  0  0  0  0
 15  2  1  0  0  0  0
 15 16  1  0  0  0  0
 16 10  1  0  0  0  0
 16 17  2  0  0  0  0
 17 18  1  0  0  0  0
 17 42  1  0  0  0  0
 18 19  2  0  0  0  0
 18 28  1  0  0  0  0
 19 11  1  0  0  0  0
 19 43  1  0  0  0  0
 20 21  2  0  0  0  0
 21 22  1  0  0  0  0
 21 40  1  0  0  0  0
 22 23  2  0  0  0  0
 22 27  1  0  0  0  0
 23 14  1  0  0  0  0
 23 41  1  0  0  0  0
 24 48  1  0  0  0  0
 24 20  1  0  0  0  0
 25 49  1  0  0  0  0
 26 32  2  0  0  0  0
 26 33  1  0  0  0  0
 27 35  2  0  0  0  0
 27 36  1  0  0  0  0
 28 29  2  0  0  0  0
 28 30  1  0  0  0  0
 30 31  1  0  0  0  0
 31 56  1  0  0  0  0
 31 57  1  0  0  0  0
 31 58  1  0  0  0  0
 33 34  1  0  0  0  0
 34 50  1  0  0  0  0
 34 51  1  0  0  0  0
 34 52  1  0  0  0  0
 36 37  1  0  0  0  0
 37 53  1  0  0  0  0
 37 54  1  0  0  0  0
 37 55  1  0  0  0  0
 44 45  1  0  0  0  0
 44 61  1  0  0  0  0
 44 62  1  0  0  0  0
 45 63  1  0  0  0  0
 45 64  1  0  0  0  0
 45 65  1  0  0  0  0
 46 47  1  0  0  0  0
 46 75  1  0  0  0  0
 46 76  1  0  0  0  0
 47 72  1  0  0  0  0
 47 73  1  0  0  0  0
 47 74  1  0  0  0  0
 48 66  1  0  0  0  0
 48 67  1  0  0  0  0
 48 68  1  0  0  0  0
 49 69  1  0  0  0  0
 49 70  1  0  0  0  0
 49 71  1  0  0  0  0
M  CHG  1   1  -1
M  END
