 energy: -30.678205705827 gnorm: 0.000245571476 xtb: 6.7.1 (edcfbbe)
          03172512083D

156164  0     0  0            999 V2000
   -2.4418    2.7502    1.2229 C   0  0  0  0  0  0  0  0  0  0  0  0
   -2.4855    1.3601    1.1917 C   0  0  0  0  0  0  0  0  0  0  0  0
   -1.3003    0.6339    1.5424 C   0  0  0  0  0  0  0  0  0  0  0  0
   -0.0832    1.3520    1.6078 C   0  0  0  0  0  0  0  0  0  0  0  0
   -0.0946    2.7465    1.5982 C   0  0  0  0  0  0  0  0  0  0  0  0
   -1.2675    3.4632    1.4623 C   0  0  0  0  0  0  0  0  0  0  0  0
   -1.2858   -0.8034    1.7397 C   0  0  0  0  0  0  0  0  0  0  0  0
   -0.0707   -1.4995    1.4726 C   0  0  0  0  0  0  0  0  0  0  0  0
    1.1570   -0.7935    1.3723 C   0  0  0  0  0  0  0  0  0  0  0  0
    1.1923    0.6411    1.6395 C   0  0  0  0  0  0  0  0  0  0  0  0
   -2.4194   -1.5666    2.2174 C   0  0  0  0  0  0  0  0  0  0  0  0
   -2.4457   -2.9695    2.0266 C   0  0  0  0  0  0  0  0  0  0  0  0
   -1.2598   -3.6902    1.5686 C   0  0  0  0  0  0  0  0  0  0  0  0
   -0.0469   -2.9129    1.3496 C   0  0  0  0  0  0  0  0  0  0  0  0
    1.1498   -3.5543    1.0624 C   0  0  0  0  0  0  0  0  0  0  0  0
    2.3484   -2.8639    0.9266 C   0  0  0  0  0  0  0  0  0  0  0  0
    2.3295   -1.4848    1.1016 C   0  0  0  0  0  0  0  0  0  0  0  0
   -3.4501   -0.9880    3.0311 C   0  0  0  0  0  0  0  0  0  0  0  0
   -4.5667   -1.7597    3.3388 C   0  0  0  0  0  0  0  0  0  0  0  0
   -4.6624   -3.1100    3.0056 C   0  0  0  0  0  0  0  0  0  0  0  0
   -3.5783   -3.6991    2.3865 C   0  0  0  0  0  0  0  0  0  0  0  0
   -3.2339    0.2815    3.5905 O   0  0  0  0  0  0  0  0  0  0  0  0
   -3.6116    0.6430    0.7659 O   0  0  0  0  0  0  0  0  0  0  0  0
    2.2506    1.2260    1.8683 O   0  0  0  0  0  0  0  0  0  0  0  0
   -1.2656   -4.9155    1.4464 O   0  0  0  0  0  0  0  0  0  0  0  0
   -4.3390    0.8380    4.2679 C   0  0  0  0  0  0  0  0  0  0  0  0
   -4.7566    1.4229    0.5047 C   0  0  0  0  0  0  0  0  0  0  0  0
   -5.8927   -3.9193    3.4472 C   0  0  0  0  0  0  0  0  0  0  0  0
   -5.8886   -5.3407    2.8480 C   0  0  0  0  0  0  0  0  0  0  0  0
   -5.8918   -4.0338    4.9831 C   0  0  0  0  0  0  0  0  0  0  0  0
   -7.1779   -3.2081    2.9793 C   0  0  0  0  0  0  0  0  0  0  0  0
   -1.3035    5.0006    1.4938 C   0  0  0  0  0  0  0  0  0  0  0  0
   -2.3485    5.4709    2.5256 C   0  0  0  0  0  0  0  0  0  0  0  0
    0.0621    5.5989    1.8891 C   0  0  0  0  0  0  0  0  0  0  0  0
   -1.6831    5.5285    0.0977 C   0  0  0  0  0  0  0  0  0  0  0  0
    3.6442   -3.6392    0.6383 C   0  0  0  0  0  0  0  0  0  0  0  0
    4.8543   -2.6957    0.4877 C   0  0  0  0  0  0  0  0  0  0  0  0
    3.4849   -4.4338   -0.6721 C   0  0  0  0  0  0  0  0  0  0  0  0
    3.9268   -4.6092    1.8010 C   0  0  0  0  0  0  0  0  0  0  0  0
    4.8438   -5.1754    1.6252 H   0  0  0  0  0  0  0  0  0  0  0  0
    3.1128   -5.3245    1.9284 H   0  0  0  0  0  0  0  0  0  0  0  0
    4.0433   -4.0644    2.7398 H   0  0  0  0  0  0  0  0  0  0  0  0
    5.7626   -3.2602    0.2659 H   0  0  0  0  0  0  0  0  0  0  0  0
    5.0336   -2.1349    1.4069 H   0  0  0  0  0  0  0  0  0  0  0  0
    4.7003   -1.9855   -0.3269 H   0  0  0  0  0  0  0  0  0  0  0  0
    4.4002   -4.9780   -0.9151 H   0  0  0  0  0  0  0  0  0  0  0  0
    3.2600   -3.7645   -1.5047 H   0  0  0  0  0  0  0  0  0  0  0  0
    2.6756   -5.1619   -0.6003 H   0  0  0  0  0  0  0  0  0  0  0  0
   -8.0654   -3.7860    3.2466 H   0  0  0  0  0  0  0  0  0  0  0  0
   -7.1744   -3.0795    1.8953 H   0  0  0  0  0  0  0  0  0  0  0  0
   -7.2793   -2.2214    3.4334 H   0  0  0  0  0  0  0  0  0  0  0  0
   -6.7488   -4.6124    5.3346 H   0  0  0  0  0  0  0  0  0  0  0  0
   -5.9373   -3.0495    5.4523 H   0  0  0  0  0  0  0  0  0  0  0  0
   -4.9840   -4.5283    5.3346 H   0  0  0  0  0  0  0  0  0  0  0  0
   -6.7991   -5.8798    3.1189 H   0  0  0  0  0  0  0  0  0  0  0  0
   -5.0446   -5.9263    3.2166 H   0  0  0  0  0  0  0  0  0  0  0  0
   -5.8356   -5.3062    1.7582 H   0  0  0  0  0  0  0  0  0  0  0  0
   -4.0981    1.8621    4.5529 H   0  0  0  0  0  0  0  0  0  0  0  0
   -4.5582    0.2679    5.1707 H   0  0  0  0  0  0  0  0  0  0  0  0
   -5.2094    0.8557    3.6127 H   0  0  0  0  0  0  0  0  0  0  0  0
   -5.5817    0.7607    0.2428 H   0  0  0  0  0  0  0  0  0  0  0  0
   -4.5722    2.0971   -0.3317 H   0  0  0  0  0  0  0  0  0  0  0  0
   -5.0357    1.9896    1.3926 H   0  0  0  0  0  0  0  0  0  0  0  0
   -1.7056    6.6204    0.0830 H   0  0  0  0  0  0  0  0  0  0  0  0
   -2.6681    5.1706   -0.2070 H   0  0  0  0  0  0  0  0  0  0  0  0
   -0.9608    5.1961   -0.6505 H   0  0  0  0  0  0  0  0  0  0  0  0
    0.3825    5.2378    2.8681 H   0  0  0  0  0  0  0  0  0  0  0  0
    0.0086    6.6886    1.9420 H   0  0  0  0  0  0  0  0  0  0  0  0
    0.8322    5.3459    1.1582 H   0  0  0  0  0  0  0  0  0  0  0  0
   -2.3763    6.5611    2.5861 H   0  0  0  0  0  0  0  0  0  0  0  0
   -2.1134    5.0858    3.5196 H   0  0  0  0  0  0  0  0  0  0  0  0
   -3.3511    5.1295    2.2640 H   0  0  0  0  0  0  0  0  0  0  0  0
    1.1368   -4.6254    0.9670 H   0  0  0  0  0  0  0  0  0  0  0  0
    3.2393   -0.9160    1.0417 H   0  0  0  0  0  0  0  0  0  0  0  0
    0.8478    3.2552    1.6877 H   0  0  0  0  0  0  0  0  0  0  0  0
   -3.3386    3.3047    1.0214 H   0  0  0  0  0  0  0  0  0  0  0  0
   -5.3596   -1.3220    3.9149 H   0  0  0  0  0  0  0  0  0  0  0  0
   -3.5762   -4.7542    2.1817 H   0  0  0  0  0  0  0  0  0  0  0  0
    1.4311    0.1148    5.5923 C   0  0  0  0  0  0  0  0  0  0  0  0
    1.4786   -1.1366    6.2108 C   0  0  0  0  0  0  0  0  0  0  0  0
    1.3606   -1.1832    7.6401 C   0  0  0  0  0  0  0  0  0  0  0  0
    1.5886    0.0023    8.3756 C   0  0  0  0  0  0  0  0  0  0  0  0
    1.5702    1.2182    7.7078 C   0  0  0  0  0  0  0  0  0  0  0  0
    1.4109    1.2908    6.3232 C   0  0  0  0  0  0  0  0  0  0  0  0
    1.0676   -2.4077    8.3322 C   0  0  0  0  0  0  0  0  0  0  0  0
    1.5230   -2.5562    9.6764 C   0  0  0  0  0  0  0  0  0  0  0  0
    1.9325   -1.4242   10.4155 C   0  0  0  0  0  0  0  0  0  0  0  0
    1.8547   -0.0823    9.8178 C   0  0  0  0  0  0  0  0  0  0  0  0
    0.3180   -3.4774    7.7350 C   0  0  0  0  0  0  0  0  0  0  0  0
    0.4478   -4.7923    8.2351 C   0  0  0  0  0  0  0  0  0  0  0  0
    1.1302   -5.0188    9.5165 C   0  0  0  0  0  0  0  0  0  0  0  0
    1.5668   -3.8355   10.2724 C   0  0  0  0  0  0  0  0  0  0  0  0
    2.0419   -3.9544   11.5669 C   0  0  0  0  0  0  0  0  0  0  0  0
    2.4586   -2.8528   12.3046 C   0  0  0  0  0  0  0  0  0  0  0  0
    2.3839   -1.5968   11.7127 C   0  0  0  0  0  0  0  0  0  0  0  0
   -0.6368   -3.2334    6.6923 C   0  0  0  0  0  0  0  0  0  0  0  0
   -1.1330   -4.3293    5.9825 C   0  0  0  0  0  0  0  0  0  0  0  0
   -0.8422   -5.6310    6.3517 C   0  0  0  0  0  0  0  0  0  0  0  0
   -0.1101   -5.8411    7.5192 C   0  0  0  0  0  0  0  0  0  0  0  0
   -1.0557   -1.9307    6.4921 O   0  0  0  0  0  0  0  0  0  0  0  0
    1.6712   -2.3331    5.5453 O   0  0  0  0  0  0  0  0  0  0  0  0
    2.0397    0.9221   10.4891 O   0  0  0  0  0  0  0  0  0  0  0  0
    1.2948   -6.1472    9.9566 O   0  0  0  0  0  0  0  0  0  0  0  0
   -1.9102   -1.7433    5.3968 C   0  0  0  0  0  0  0  0  0  0  0  0
    1.7000   -2.2326    4.1478 C   0  0  0  0  0  0  0  0  0  0  0  0
   -1.3672   -6.8233    5.5396 C   0  0  0  0  0  0  0  0  0  0  0  0
   -0.2112   -7.7997    5.2553 C   0  0  0  0  0  0  0  0  0  0  0  0
   -2.4668   -7.5337    6.3461 C   0  0  0  0  0  0  0  0  0  0  0  0
   -1.9574   -6.3752    4.1853 C   0  0  0  0  0  0  0  0  0  0  0  0
    1.1654    2.6113    5.5802 C   0  0  0  0  0  0  0  0  0  0  0  0
   -0.2197    2.5397    4.9058 C   0  0  0  0  0  0  0  0  0  0  0  0
    1.1813    3.8155    6.5389 C   0  0  0  0  0  0  0  0  0  0  0  0
    2.2556    2.8213    4.5137 C   0  0  0  0  0  0  0  0  0  0  0  0
    2.9814   -3.0550   13.7347 C   0  0  0  0  0  0  0  0  0  0  0  0
    3.4316   -1.7259   14.3710 C   0  0  0  0  0  0  0  0  0  0  0  0
    4.1882   -4.0110   13.7047 C   0  0  0  0  0  0  0  0  0  0  0  0
    1.8632   -3.6583   14.6034 C   0  0  0  0  0  0  0  0  0  0  0  0
    2.2007   -3.8025   15.6297 H   0  0  0  0  0  0  0  0  0  0  0  0
    1.5424   -4.6253   14.2185 H   0  0  0  0  0  0  0  0  0  0  0  0
    0.9944   -3.0010   14.6226 H   0  0  0  0  0  0  0  0  0  0  0  0
    3.8099   -1.8884   15.3803 H   0  0  0  0  0  0  0  0  0  0  0  0
    2.6022   -1.0227   14.4397 H   0  0  0  0  0  0  0  0  0  0  0  0
    4.2296   -1.2644   13.7899 H   0  0  0  0  0  0  0  0  0  0  0  0
    4.5976   -4.1549   14.7045 H   0  0  0  0  0  0  0  0  0  0  0  0
    4.9790   -3.6116   13.0702 H   0  0  0  0  0  0  0  0  0  0  0  0
    3.9095   -4.9891   13.3154 H   0  0  0  0  0  0  0  0  0  0  0  0
   -2.2709   -7.2349    3.5948 H   0  0  0  0  0  0  0  0  0  0  0  0
   -1.2294   -5.8203    3.5926 H   0  0  0  0  0  0  0  0  0  0  0  0
   -2.8335   -5.7454    4.3281 H   0  0  0  0  0  0  0  0  0  0  0  0
   -2.8676   -8.3845    5.7958 H   0  0  0  0  0  0  0  0  0  0  0  0
   -3.2890   -6.8507    6.5577 H   0  0  0  0  0  0  0  0  0  0  0  0
   -2.0814   -7.8987    7.2973 H   0  0  0  0  0  0  0  0  0  0  0  0
   -0.5502   -8.6382    4.6475 H   0  0  0  0  0  0  0  0  0  0  0  0
    0.2043   -8.2049    6.1766 H   0  0  0  0  0  0  0  0  0  0  0  0
    0.5910   -7.2957    4.7172 H   0  0  0  0  0  0  0  0  0  0  0  0
   -2.0870   -0.6731    5.2770 H   0  0  0  0  0  0  0  0  0  0  0  0
   -2.8613   -2.2475    5.5728 H   0  0  0  0  0  0  0  0  0  0  0  0
   -1.4343   -2.1217    4.4921 H   0  0  0  0  0  0  0  0  0  0  0  0
    1.7859   -3.2371    3.7318 H   0  0  0  0  0  0  0  0  0  0  0  0
    2.5580   -1.6365    3.8336 H   0  0  0  0  0  0  0  0  0  0  0  0
    0.7703   -1.7845    3.7983 H   0  0  0  0  0  0  0  0  0  0  0  0
    2.1212    3.7732    4.0023 H   0  0  0  0  0  0  0  0  0  0  0  0
    2.2322    2.0397    3.7568 H   0  0  0  0  0  0  0  0  0  0  0  0
    3.2455    2.8182    4.9678 H   0  0  0  0  0  0  0  0  0  0  0  0
    0.4130    3.7157    7.3048 H   0  0  0  0  0  0  0  0  0  0  0  0
    0.9901    4.7417    5.9975 H   0  0  0  0  0  0  0  0  0  0  0  0
    2.1491    3.9122    7.0299 H   0  0  0  0  0  0  0  0  0  0  0  0
   -0.4401    3.4570    4.3634 H   0  0  0  0  0  0  0  0  0  0  0  0
   -1.0035    2.3880    5.6466 H   0  0  0  0  0  0  0  0  0  0  0  0
   -0.2757    1.7146    4.1974 H   0  0  0  0  0  0  0  0  0  0  0  0
    2.0804   -4.9371   11.9994 H   0  0  0  0  0  0  0  0  0  0  0  0
    2.6827   -0.7186   12.2534 H   0  0  0  0  0  0  0  0  0  0  0  0
    1.6678    2.1117    8.2956 H   0  0  0  0  0  0  0  0  0  0  0  0
    1.4013    0.1681    4.5205 H   0  0  0  0  0  0  0  0  0  0  0  0
   -1.7698   -4.1488    5.1392 H   0  0  0  0  0  0  0  0  0  0  0  0
    0.0357   -6.8383    7.8915 H   0  0  0  0  0  0  0  0  0  0  0  0
  1  2  2  0  0  0  0
  1 76  1  0  0  0  0
  2  3  1  0  0  0  0
  2 23  1  0  0  0  0
  3  4  2  0  0  0  0
  3  7  1  0  0  0  0
  4  5  1  0  0  0  0
  5  6  2  0  0  0  0
  5 75  1  0  0  0  0
  6 32  1  0  0  0  0
  6  1  1  0  0  0  0
  7  8  1  0  0  0  0
  8  9  2  0  0  0  0
  9 10  1  0  0  0  0
 10  4  1  0  0  0  0
 10 24  2  0  0  0  0
 11 12  2  0  0  0  0
 11 18  1  0  0  0  0
 11  7  1  0  0  0  0
 12 13  1  0  0  0  0
 13 14  1  0  0  0  0
 13 25  2  0  0  0  0
 14  8  1  0  0  0  0
 14 15  2  0  0  0  0
 15 16  1  0  0  0  0
 15 73  1  0  0  0  0
 16 36  1  0  0  0  0
 16 17  2  0  0  0  0
 17  9  1  0  0  0  0
 17 74  1  0  0  0  0
 18 19  2  0  0  0  0
 19 20  1  0  0  0  0
 19 77  1  0  0  0  0
 20 28  1  0  0  0  0
 20 21  2  0  0  0  0
 21 12  1  0  0  0  0
 21 78  1  0  0  0  0
 22 26  1  0  0  0  0
 22 18  1  0  0  0  0
 23 27  1  0  0  0  0
 26 58  1  0  0  0  0
 26 59  1  0  0  0  0
 26 60  1  0  0  0  0
 27 61  1  0  0  0  0
 27 62  1  0  0  0  0
 27 63  1  0  0  0  0
 28 29  1  0  0  0  0
 28 30  1  0  0  0  0
 28 31  1  0  0  0  0
 29 55  1  0  0  0  0
 29 56  1  0  0  0  0
 29 57  1  0  0  0  0
 30 52  1  0  0  0  0
 30 53  1  0  0  0  0
 30 54  1  0  0  0  0
 31 49  1  0  0  0  0
 31 50  1  0  0  0  0
 31 51  1  0  0  0  0
 32 33  1  0  0  0  0
 32 34  1  0  0  0  0
 32 35  1  0  0  0  0
 33 70  1  0  0  0  0
 33 71  1  0  0  0  0
 33 72  1  0  0  0  0
 34 67  1  0  0  0  0
 34 68  1  0  0  0  0
 34 69  1  0  0  0  0
 35 64  1  0  0  0  0
 35 65  1  0  0  0  0
 35 66  1  0  0  0  0
 36 37  1  0  0  0  0
 36 38  1  0  0  0  0
 36 39  1  0  0  0  0
 37 43  1  0  0  0  0
 37 44  1  0  0  0  0
 37 45  1  0  0  0  0
 38 46  1  0  0  0  0
 38 47  1  0  0  0  0
 38 48  1  0  0  0  0
 39 40  1  0  0  0  0
 39 41  1  0  0  0  0
 39 42  1  0  0  0  0
 79 80  2  0  0  0  0
 79154  1  0  0  0  0
 80 81  1  0  0  0  0
 80101  1  0  0  0  0
 81 82  2  0  0  0  0
 81 85  1  0  0  0  0
 82 83  1  0  0  0  0
 83 84  2  0  0  0  0
 83153  1  0  0  0  0
 84110  1  0  0  0  0
 84 79  1  0  0  0  0
 85 86  1  0  0  0  0
 86 87  2  0  0  0  0
 87 88  1  0  0  0  0
 88 82  1  0  0  0  0
 88102  2  0  0  0  0
 89 90  2  0  0  0  0
 89 96  1  0  0  0  0
 89 85  1  0  0  0  0
 90 91  1  0  0  0  0
 91 92  1  0  0  0  0
 91103  2  0  0  0  0
 92 86  1  0  0  0  0
 92 93  2  0  0  0  0
 93 94  1  0  0  0  0
 93151  1  0  0  0  0
 94114  1  0  0  0  0
 94 95  2  0  0  0  0
 95 87  1  0  0  0  0
 95152  1  0  0  0  0
 96 97  2  0  0  0  0
 97 98  1  0  0  0  0
 97155  1  0  0  0  0
 98106  1  0  0  0  0
 98 99  2  0  0  0  0
 99 90  1  0  0  0  0
 99156  1  0  0  0  0
100104  1  0  0  0  0
100 96  1  0  0  0  0
101105  1  0  0  0  0
104136  1  0  0  0  0
104137  1  0  0  0  0
104138  1  0  0  0  0
105139  1  0  0  0  0
105140  1  0  0  0  0
105141  1  0  0  0  0
106107  1  0  0  0  0
106108  1  0  0  0  0
106109  1  0  0  0  0
107133  1  0  0  0  0
107134  1  0  0  0  0
107135  1  0  0  0  0
108130  1  0  0  0  0
108131  1  0  0  0  0
108132  1  0  0  0  0
109127  1  0  0  0  0
109128  1  0  0  0  0
109129  1  0  0  0  0
110111  1  0  0  0  0
110112  1  0  0  0  0
110113  1  0  0  0  0
111148  1  0  0  0  0
111149  1  0  0  0  0
111150  1  0  0  0  0
112145  1  0  0  0  0
112146  1  0  0  0  0
112147  1  0  0  0  0
113142  1  0  0  0  0
113143  1  0  0  0  0
113144  1  0  0  0  0
114115  1  0  0  0  0
114116  1  0  0  0  0
114117  1  0  0  0  0
115121  1  0  0  0  0
115122  1  0  0  0  0
115123  1  0  0  0  0
116124  1  0  0  0  0
116125  1  0  0  0  0
116126  1  0  0  0  0
117118  1  0  0  0  0
117119  1  0  0  0  0
117120  1  0  0  0  0
M  CHG  1   7  -1
M  CHG  1  85  -1
M  END
