 energy: -39.536998364497 gnorm: 0.000851599486 xtb: 6.7.1 (edcfbbe)
          03132512343D

202224  0     0  0            999 V2000
   -0.7207    4.2979    1.3286 C   0  0  0  0  0  0  0  0  0  0  0  0
    0.0246    3.3171    1.9730 C   0  0  0  0  0  0  0  0  0  0  0  0
    1.4515    3.3164    1.7902 C   0  0  0  0  0  0  0  0  0  0  0  0
    2.0417    4.4733    1.1903 C   0  0  0  0  0  0  0  0  0  0  0  0
    1.2196    5.4389    0.5836 C   0  0  0  0  0  0  0  0  0  0  0  0
   -0.1391    5.3344    0.6335 C   0  0  0  0  0  0  0  0  0  0  0  0
    2.3252    2.2540    2.1963 C   0  0  0  0  0  0  0  0  0  0  0  0
    3.6921    2.5751    2.2523 C   0  0  0  0  0  0  0  0  0  0  0  0
    4.1645    3.8296    1.7663 C   0  0  0  0  0  0  0  0  0  0  0  0
    3.3637    4.7317    1.1847 N   0  0  0  0  0  0  0  0  0  0  0  0
    1.9869    0.8839    2.4722 C   0  0  0  0  0  0  0  0  0  0  0  0
    2.9919    0.0782    3.0995 C   0  0  0  0  0  0  0  0  0  0  0  0
    4.2709    0.4592    3.2889 N   0  0  0  0  0  0  0  0  0  0  0  0
    4.6337    1.6437    2.7796 C   0  0  0  0  0  0  0  0  0  0  0  0
    5.9933    1.9805    2.7948 C   0  0  0  0  0  0  0  0  0  0  0  0
    6.4315    3.1949    2.3243 C   0  0  0  0  0  0  0  0  0  0  0  0
    5.5347    4.1114    1.8316 C   0  0  0  0  0  0  0  0  0  0  0  0
    0.8030    0.2119    1.9959 C   0  0  0  0  0  0  0  0  0  0  0  0
    0.6754   -1.1503    2.2292 C   0  0  0  0  0  0  0  0  0  0  0  0
    1.5747   -1.8604    2.9958 C   0  0  0  0  0  0  0  0  0  0  0  0
    2.7095   -1.2561    3.4389 C   0  0  0  0  0  0  0  0  0  0  0  0
   -0.6618    2.4257    2.7826 O   0  0  0  0  0  0  0  0  0  0  0  0
   -0.2149    0.7768    1.2423 O   0  0  0  0  0  0  0  0  0  0  0  0
   -1.1805    6.5718   -0.1722 S   0  0  0  0  0  0  0  0  0  0  0  0
    1.2586   -3.6046    3.3739 S   0  0  0  0  0  0  0  0  0  0  0  0
    8.2037    3.5857    2.3404 S   0  0  0  0  0  0  0  0  0  0  0  0
   -2.0680   -1.8741    2.6909 C   0  0  0  0  0  0  0  0  0  0  0  0
   -2.6178   -0.7226    2.1270 C   0  0  0  0  0  0  0  0  0  0  0  0
   -3.5235   -0.8623    1.0022 C   0  0  0  0  0  0  0  0  0  0  0  0
   -3.6327   -2.1623    0.4128 C   0  0  0  0  0  0  0  0  0  0  0  0
   -2.8886   -3.2359    0.9324 C   0  0  0  0  0  0  0  0  0  0  0  0
   -2.1365   -3.1014    2.0603 C   0  0  0  0  0  0  0  0  0  0  0  0
   -4.4850    0.1184    0.5634 C   0  0  0  0  0  0  0  0  0  0  0  0
   -5.5025   -0.3169   -0.2998 C   0  0  0  0  0  0  0  0  0  0  0  0
   -5.4105   -1.5880   -0.9336 C   0  0  0  0  0  0  0  0  0  0  0  0
   -4.4672   -2.4807   -0.6027 N   0  0  0  0  0  0  0  0  0  0  0  0
   -4.6535    1.4585    1.0443 C   0  0  0  0  0  0  0  0  0  0  0  0
   -5.9471    2.0612    0.9739 C   0  0  0  0  0  0  0  0  0  0  0  0
   -6.9306    1.6028    0.1779 N   0  0  0  0  0  0  0  0  0  0  0  0
   -6.6583    0.4942   -0.5289 C   0  0  0  0  0  0  0  0  0  0  0  0
   -7.6007    0.0648   -1.4696 C   0  0  0  0  0  0  0  0  0  0  0  0
   -7.4513   -1.1227   -2.1442 C   0  0  0  0  0  0  0  0  0  0  0  0
   -6.3829   -1.9492   -1.8767 C   0  0  0  0  0  0  0  0  0  0  0  0
   -3.5729    2.2726    1.5186 C   0  0  0  0  0  0  0  0  0  0  0  0
   -3.8819    3.3795    2.3027 C   0  0  0  0  0  0  0  0  0  0  0  0
   -5.1838    3.8394    2.4157 C   0  0  0  0  0  0  0  0  0  0  0  0
   -6.1874    3.2325    1.7129 C   0  0  0  0  0  0  0  0  0  0  0  0
   -2.1636    0.4457    2.7219 O   0  0  0  0  0  0  0  0  0  0  0  0
   -2.2890    2.0357    1.0559 O   0  0  0  0  0  0  0  0  0  0  0  0
   -1.1874   -4.5315    2.6689 S   0  0  0  0  0  0  0  0  0  0  0  0
   -5.5993    5.2797    3.4291 S   0  0  0  0  0  0  0  0  0  0  0  0
   -8.7004   -1.6009   -3.3649 S   0  0  0  0  0  0  0  0  0  0  0  0
   -1.3384    1.4109    1.9670 B   0  0  0  0  0  0  0  0  0  0  0  0
    8.0287    5.0890    2.4172 O   0  0  0  0  0  0  0  0  0  0  0  0
    8.4590    3.2006    3.9650 O   0  0  0  0  0  0  0  0  0  0  0  0
    9.0282    4.2628    4.6588 C   0  0  0  0  0  0  0  0  0  0  0  0
    1.5038   -4.1948    1.8099 O   0  0  0  0  0  0  0  0  0  0  0  0
    2.8280   -4.0949    1.4022 C   0  0  0  0  0  0  0  0  0  0  0  0
    2.5844   -3.9452    4.0341 O   0  0  0  0  0  0  0  0  0  0  0  0
   -1.2874   -4.2331    4.1577 O   0  0  0  0  0  0  0  0  0  0  0  0
   -2.4238   -5.6683    2.4566 O   0  0  0  0  0  0  0  0  0  0  0  0
   -3.3586   -5.5933    3.4723 C   0  0  0  0  0  0  0  0  0  0  0  0
   -9.6649   -0.4545   -3.1547 O   0  0  0  0  0  0  0  0  0  0  0  0
   -9.4273   -2.8038   -2.4420 O   0  0  0  0  0  0  0  0  0  0  0  0
  -10.1549   -2.2879   -1.3796 C   0  0  0  0  0  0  0  0  0  0  0  0
   -6.4714    5.9935    2.4174 O   0  0  0  0  0  0  0  0  0  0  0  0
   -4.1250    6.0624    3.2290 O   0  0  0  0  0  0  0  0  0  0  0  0
   -4.0765    6.7614    2.0312 C   0  0  0  0  0  0  0  0  0  0  0  0
   -0.7176    6.3612   -1.5996 O   0  0  0  0  0  0  0  0  0  0  0  0
   -2.6007    5.6676   -0.1419 O   0  0  0  0  0  0  0  0  0  0  0  0
   -2.6326    4.6868   -1.1267 C   0  0  0  0  0  0  0  0  0  0  0  0
  -10.6641   -3.1070   -0.8640 H   0  0  0  0  0  0  0  0  0  0  0  0
  -10.8863   -1.5721   -1.7693 H   0  0  0  0  0  0  0  0  0  0  0  0
   -9.4728   -1.7838   -0.6908 H   0  0  0  0  0  0  0  0  0  0  0  0
   -3.1172    7.2798    1.9520 H   0  0  0  0  0  0  0  0  0  0  0  0
   -4.8989    7.4842    2.0169 H   0  0  0  0  0  0  0  0  0  0  0  0
   -4.1950    6.0588    1.2001 H   0  0  0  0  0  0  0  0  0  0  0  0
   -3.5899    4.1606   -1.0742 H   0  0  0  0  0  0  0  0  0  0  0  0
   -1.8129    3.9788   -0.9742 H   0  0  0  0  0  0  0  0  0  0  0  0
   -2.5196    5.1717   -2.1015 H   0  0  0  0  0  0  0  0  0  0  0  0
   -4.2568   -6.1498    3.1901 H   0  0  0  0  0  0  0  0  0  0  0  0
   -3.5835   -4.5366    3.6275 H   0  0  0  0  0  0  0  0  0  0  0  0
   -2.9172   -6.0087    4.3830 H   0  0  0  0  0  0  0  0  0  0  0  0
    3.4634   -4.5690    2.1570 H   0  0  0  0  0  0  0  0  0  0  0  0
    3.1013   -3.0424    1.2916 H   0  0  0  0  0  0  0  0  0  0  0  0
    2.9421   -4.6078    0.4435 H   0  0  0  0  0  0  0  0  0  0  0  0
    9.1632    3.9718    5.7053 H   0  0  0  0  0  0  0  0  0  0  0  0
    8.3582    5.1256    4.5870 H   0  0  0  0  0  0  0  0  0  0  0  0
    9.9947    4.5080    4.2102 H   0  0  0  0  0  0  0  0  0  0  0  0
   -8.4768    0.6641   -1.6491 H   0  0  0  0  0  0  0  0  0  0  0  0
   -6.3053   -2.9039   -2.3658 H   0  0  0  0  0  0  0  0  0  0  0  0
   -7.1700    3.6714    1.6996 H   0  0  0  0  0  0  0  0  0  0  0  0
   -2.9813   -4.2025    0.4690 H   0  0  0  0  0  0  0  0  0  0  0  0
   -3.0909    3.9348    2.7589 H   0  0  0  0  0  0  0  0  0  0  0  0
   -1.4934   -1.7722    3.5958 H   0  0  0  0  0  0  0  0  0  0  0  0
   -1.7898    4.2386    1.3578 H   0  0  0  0  0  0  0  0  0  0  0  0
   -0.1332   -1.6675    1.7514 H   0  0  0  0  0  0  0  0  0  0  0  0
    3.4427   -1.8373    3.9711 H   0  0  0  0  0  0  0  0  0  0  0  0
    1.6772    6.2706    0.0769 H   0  0  0  0  0  0  0  0  0  0  0  0
    5.8931    5.0704    1.5002 H   0  0  0  0  0  0  0  0  0  0  0  0
    6.6983    1.2797    3.2048 H   0  0  0  0  0  0  0  0  0  0  0  0
    0.3486    3.6922    6.2032 C   0  0  0  0  0  0  0  0  0  0  0  0
    0.8634    2.4492    6.5480 C   0  0  0  0  0  0  0  0  0  0  0  0
    2.1921    2.1019    6.1323 C   0  0  0  0  0  0  0  0  0  0  0  0
    2.9711    3.1306    5.5151 C   0  0  0  0  0  0  0  0  0  0  0  0
    2.3637    4.3409    5.1335 C   0  0  0  0  0  0  0  0  0  0  0  0
    1.0799    4.6225    5.4929 C   0  0  0  0  0  0  0  0  0  0  0  0
    2.8361    0.8533    6.4402 C   0  0  0  0  0  0  0  0  0  0  0  0
    4.2427    0.8921    6.4227 C   0  0  0  0  0  0  0  0  0  0  0  0
    4.9358    2.0235    5.8985 C   0  0  0  0  0  0  0  0  0  0  0  0
    4.3083    3.0800    5.3670 N   0  0  0  0  0  0  0  0  0  0  0  0
    2.2392   -0.4150    6.7814 C   0  0  0  0  0  0  0  0  0  0  0  0
    3.1042   -1.4040    7.3508 C   0  0  0  0  0  0  0  0  0  0  0  0
    4.4411   -1.2859    7.4664 N   0  0  0  0  0  0  0  0  0  0  0  0
    5.0050   -0.1940    6.9392 C   0  0  0  0  0  0  0  0  0  0  0  0
    6.4028   -0.1155    6.9315 C   0  0  0  0  0  0  0  0  0  0  0  0
    7.0539    0.9777    6.4136 C   0  0  0  0  0  0  0  0  0  0  0  0
    6.3357    2.0280    5.8964 C   0  0  0  0  0  0  0  0  0  0  0  0
    0.8851   -0.8246    6.4883 C   0  0  0  0  0  0  0  0  0  0  0  0
    0.4651   -2.0937    6.8755 C   0  0  0  0  0  0  0  0  0  0  0  0
    1.2716   -2.9505    7.6010 C   0  0  0  0  0  0  0  0  0  0  0  0
    2.5770   -2.6245    7.8017 C   0  0  0  0  0  0  0  0  0  0  0  0
    0.0800    1.6447    7.3514 O   0  0  0  0  0  0  0  0  0  0  0  0
   -0.0559   -0.0706    5.8045 O   0  0  0  0  0  0  0  0  0  0  0  0
    0.3749    6.2411    5.0975 S   0  0  0  0  0  0  0  0  0  0  0  0
    0.6606   -4.5008    8.3417 S   0  0  0  0  0  0  0  0  0  0  0  0
    8.8621    1.0428    6.4151 S   0  0  0  0  0  0  0  0  0  0  0  0
   -2.1877   -2.0152    8.0959 C   0  0  0  0  0  0  0  0  0  0  0  0
   -2.4754   -0.9964    7.1915 C   0  0  0  0  0  0  0  0  0  0  0  0
   -3.3097   -1.2763    6.0473 C   0  0  0  0  0  0  0  0  0  0  0  0
   -3.6018   -2.6551    5.7930 C   0  0  0  0  0  0  0  0  0  0  0  0
   -3.1537   -3.6502    6.6818 C   0  0  0  0  0  0  0  0  0  0  0  0
   -2.4957   -3.3317    7.8319 C   0  0  0  0  0  0  0  0  0  0  0  0
   -4.0495   -0.2959    5.2900 C   0  0  0  0  0  0  0  0  0  0  0  0
   -5.0255   -0.7977    4.4100 C   0  0  0  0  0  0  0  0  0  0  0  0
   -5.0643   -2.1865    4.0909 C   0  0  0  0  0  0  0  0  0  0  0  0
   -4.3586   -3.0980    4.7684 N   0  0  0  0  0  0  0  0  0  0  0  0
   -4.1165    1.1285    5.5082 C   0  0  0  0  0  0  0  0  0  0  0  0
   -5.3534    1.7838    5.1968 C   0  0  0  0  0  0  0  0  0  0  0  0
   -6.2604    1.2965    4.3279 N   0  0  0  0  0  0  0  0  0  0  0  0
   -6.0325    0.0592    3.8622 C   0  0  0  0  0  0  0  0  0  0  0  0
   -6.9050   -0.4596    2.8954 C   0  0  0  0  0  0  0  0  0  0  0  0
   -6.8382   -1.7767    2.5081 C   0  0  0  0  0  0  0  0  0  0  0  0
   -5.9486   -2.6368    3.1030 C   0  0  0  0  0  0  0  0  0  0  0  0
   -3.0525    1.9702    6.0101 C   0  0  0  0  0  0  0  0  0  0  0  0
   -3.3960    3.1715    6.6309 C   0  0  0  0  0  0  0  0  0  0  0  0
   -4.6909    3.6607    6.5657 C   0  0  0  0  0  0  0  0  0  0  0  0
   -5.6260    3.0242    5.7981 C   0  0  0  0  0  0  0  0  0  0  0  0
   -1.8476    0.1920    7.4931 O   0  0  0  0  0  0  0  0  0  0  0  0
   -1.7190    1.7084    5.7343 O   0  0  0  0  0  0  0  0  0  0  0  0
   -1.9877   -4.6387    8.9902 S   0  0  0  0  0  0  0  0  0  0  0  0
   -5.2054    5.1553    7.4445 S   0  0  0  0  0  0  0  0  0  0  0  0
   -7.9444   -2.4277    1.2393 S   0  0  0  0  0  0  0  0  0  0  0  0
   -0.8966    0.8573    6.5913 B   0  0  0  0  0  0  0  0  0  0  0  0
    9.0386    2.4147    7.0314 O   0  0  0  0  0  0  0  0  0  0  0  0
    9.0708    0.0451    7.7529 O   0  0  0  0  0  0  0  0  0  0  0  0
    8.8329    0.7115    8.9478 C   0  0  0  0  0  0  0  0  0  0  0  0
   -0.0918   -5.1082    6.9656 O   0  0  0  0  0  0  0  0  0  0  0  0
    0.8130   -5.4923    5.9878 C   0  0  0  0  0  0  0  0  0  0  0  0
    1.9621   -5.2811    8.3283 O   0  0  0  0  0  0  0  0  0  0  0  0
   -1.4067   -3.7454   10.0731 O   0  0  0  0  0  0  0  0  0  0  0  0
   -3.5301   -4.9418    9.6111 O   0  0  0  0  0  0  0  0  0  0  0  0
   -3.9854   -3.9230   10.4385 C   0  0  0  0  0  0  0  0  0  0  0  0
   -8.9366   -1.2860    1.1820 O   0  0  0  0  0  0  0  0  0  0  0  0
   -8.7695   -3.5180    2.2162 O   0  0  0  0  0  0  0  0  0  0  0  0
   -9.5294   -2.8820    3.1893 C   0  0  0  0  0  0  0  0  0  0  0  0
   -6.0295    5.7465    6.3155 O   0  0  0  0  0  0  0  0  0  0  0  0
   -3.7416    5.9739    7.2875 O   0  0  0  0  0  0  0  0  0  0  0  0
   -3.7334    6.8434    6.2077 C   0  0  0  0  0  0  0  0  0  0  0  0
    0.4495    6.1793    3.5843 O   0  0  0  0  0  0  0  0  0  0  0  0
   -1.2153    5.7853    5.3694 O   0  0  0  0  0  0  0  0  0  0  0  0
   -1.7040    5.0046    4.3373 C   0  0  0  0  0  0  0  0  0  0  0  0
  -10.1340   -3.6296    3.7101 H   0  0  0  0  0  0  0  0  0  0  0  0
  -10.1814   -2.1492    2.7028 H   0  0  0  0  0  0  0  0  0  0  0  0
   -8.8717   -2.3783    3.9027 H   0  0  0  0  0  0  0  0  0  0  0  0
   -2.7347    7.2791    6.1111 H   0  0  0  0  0  0  0  0  0  0  0  0
   -4.4832    7.6231    6.3719 H   0  0  0  0  0  0  0  0  0  0  0  0
   -3.9850    6.2802    5.3061 H   0  0  0  0  0  0  0  0  0  0  0  0
   -2.6850    4.6192    4.6232 H   0  0  0  0  0  0  0  0  0  0  0  0
   -1.0182    4.1748    4.1367 H   0  0  0  0  0  0  0  0  0  0  0  0
   -1.7859    5.6421    3.4513 H   0  0  0  0  0  0  0  0  0  0  0  0
   -4.9308   -4.2315   10.8925 H   0  0  0  0  0  0  0  0  0  0  0  0
   -4.1349   -3.0123    9.8531 H   0  0  0  0  0  0  0  0  0  0  0  0
   -3.2363   -3.7463   11.2171 H   0  0  0  0  0  0  0  0  0  0  0  0
    1.4722   -6.2626    6.4014 H   0  0  0  0  0  0  0  0  0  0  0  0
    1.4051   -4.6255    5.6816 H   0  0  0  0  0  0  0  0  0  0  0  0
    0.2530   -5.8820    5.1325 H   0  0  0  0  0  0  0  0  0  0  0  0
    9.0229    0.0283    9.7803 H   0  0  0  0  0  0  0  0  0  0  0  0
    7.7966    1.0594    8.9768 H   0  0  0  0  0  0  0  0  0  0  0  0
    9.5079    1.5715    9.0059 H   0  0  0  0  0  0  0  0  0  0  0  0
   -7.6586    0.1756    2.4634 H   0  0  0  0  0  0  0  0  0  0  0  0
   -5.9627   -3.6813    2.8468 H   0  0  0  0  0  0  0  0  0  0  0  0
   -6.5886    3.4805    5.6462 H   0  0  0  0  0  0  0  0  0  0  0  0
   -3.3836   -4.6785    6.4677 H   0  0  0  0  0  0  0  0  0  0  0  0
   -2.6366    3.7668    7.1032 H   0  0  0  0  0  0  0  0  0  0  0  0
   -1.6155   -1.7774    8.9758 H   0  0  0  0  0  0  0  0  0  0  0  0
   -0.6478    3.9364    6.5175 H   0  0  0  0  0  0  0  0  0  0  0  0
   -0.5142   -2.4177    6.5781 H   0  0  0  0  0  0  0  0  0  0  0  0
    3.2318   -3.3405    8.2692 H   0  0  0  0  0  0  0  0  0  0  0  0
    2.9456    5.0727    4.6008 H   0  0  0  0  0  0  0  0  0  0  0  0
    6.8519    2.8649    5.4610 H   0  0  0  0  0  0  0  0  0  0  0  0
    6.9726   -0.9225    7.3568 H   0  0  0  0  0  0  0  0  0  0  0  0
  1  2  2  0  0  0  0
  1 96  1  0  0  0  0
  2  3  1  0  0  0  0
  3  4  2  0  0  0  0
  3  7  1  0  0  0  0
  4  5  1  0  0  0  0
  5  6  2  0  0  0  0
  5 99  1  0  0  0  0
  6  1  1  0  0  0  0
  6 24  1  0  0  0  0
  7  8  1  0  0  0  0
  7 11  2  0  0  0  0
  8  9  1  0  0  0  0
  9 10  2  0  0  0  0
 10  4  1  0  0  0  0
 11 12  1  0  0  0  0
 11 18  1  0  0  0  0
 12 13  2  0  0  0  0
 13 14  1  0  0  0  0
 14  8  1  0  0  0  0
 14 15  2  0  0  0  0
 15 16  1  0  0  0  0
 15101  1  0  0  0  0
 16 17  2  0  0  0  0
 16 26  1  0  0  0  0
 17  9  1  0  0  0  0
 17100  1  0  0  0  0
 18 19  2  0  0  0  0
 19 20  1  0  0  0  0
 19 97  1  0  0  0  0
 20 21  2  0  0  0  0
 20 25  1  0  0  0  0
 21 12  1  0  0  0  0
 21 98  1  0  0  0  0
 22  2  1  0  0  0  0
 23 18  1  0  0  0  0
 24 69  2  0  0  0  0
 24 70  1  0  0  0  0
 25 57  1  0  0  0  0
 25 59  2  0  0  0  0
 26 54  2  0  0  0  0
 26 55  1  0  0  0  0
 27 28  2  0  0  0  0
 27 95  1  0  0  0  0
 28 29  1  0  0  0  0
 28 48  1  0  0  0  0
 29 30  2  0  0  0  0
 29 33  1  0  0  0  0
 30 31  1  0  0  0  0
 31 32  2  0  0  0  0
 31 93  1  0  0  0  0
 32 27  1  0  0  0  0
 32 50  1  0  0  0  0
 33 37  2  0  0  0  0
 34 33  1  0  0  0  0
 34 35  1  0  0  0  0
 35 36  2  0  0  0  0
 36 30  1  0  0  0  0
 37 38  1  0  0  0  0
 37 44  1  0  0  0  0
 38 39  2  0  0  0  0
 39 40  1  0  0  0  0
 40 34  1  0  0  0  0
 40 41  2  0  0  0  0
 41 42  1  0  0  0  0
 41 90  1  0  0  0  0
 42 43  2  0  0  0  0
 42 52  1  0  0  0  0
 43 35  1  0  0  0  0
 43 91  1  0  0  0  0
 44 45  2  0  0  0  0
 44 49  1  0  0  0  0
 45 46  1  0  0  0  0
 45 94  1  0  0  0  0
 46 47  2  0  0  0  0
 46 51  1  0  0  0  0
 47 38  1  0  0  0  0
 47 92  1  0  0  0  0
 50 60  2  0  0  0  0
 50 61  1  0  0  0  0
 51 66  2  0  0  0  0
 51 67  1  0  0  0  0
 52 63  2  0  0  0  0
 52 64  1  0  0  0  0
 53 49  1  0  0  0  0
 53 22  1  0  0  0  0
 53 48  1  0  0  0  0
 53 23  1  0  0  0  0
 55 56  1  0  0  0  0
 56 87  1  0  0  0  0
 56 88  1  0  0  0  0
 56 89  1  0  0  0  0
 57 58  1  0  0  0  0
 58 84  1  0  0  0  0
 58 85  1  0  0  0  0
 58 86  1  0  0  0  0
 61 62  1  0  0  0  0
 62 81  1  0  0  0  0
 62 82  1  0  0  0  0
 62 83  1  0  0  0  0
 64 65  1  0  0  0  0
 65 72  1  0  0  0  0
 65 73  1  0  0  0  0
 65 74  1  0  0  0  0
 67 68  1  0  0  0  0
 68 75  1  0  0  0  0
 68 76  1  0  0  0  0
 68 77  1  0  0  0  0
 70 71  1  0  0  0  0
 71 78  1  0  0  0  0
 71 79  1  0  0  0  0
 71 80  1  0  0  0  0
102103  2  0  0  0  0
102197  1  0  0  0  0
103104  1  0  0  0  0
104105  2  0  0  0  0
104108  1  0  0  0  0
105106  1  0  0  0  0
106107  2  0  0  0  0
106200  1  0  0  0  0
107102  1  0  0  0  0
107125  1  0  0  0  0
108109  1  0  0  0  0
108112  2  0  0  0  0
109110  1  0  0  0  0
110111  2  0  0  0  0
111105  1  0  0  0  0
112113  1  0  0  0  0
112119  1  0  0  0  0
113114  2  0  0  0  0
114115  1  0  0  0  0
115109  1  0  0  0  0
115116  2  0  0  0  0
116117  1  0  0  0  0
116202  1  0  0  0  0
117118  2  0  0  0  0
117127  1  0  0  0  0
118110  1  0  0  0  0
118201  1  0  0  0  0
119120  2  0  0  0  0
120121  1  0  0  0  0
120198  1  0  0  0  0
121122  2  0  0  0  0
121126  1  0  0  0  0
122113  1  0  0  0  0
122199  1  0  0  0  0
123103  1  0  0  0  0
124119  1  0  0  0  0
125170  2  0  0  0  0
125171  1  0  0  0  0
126158  1  0  0  0  0
126160  2  0  0  0  0
127155  2  0  0  0  0
127156  1  0  0  0  0
128129  2  0  0  0  0
128196  1  0  0  0  0
129130  1  0  0  0  0
129149  1  0  0  0  0
130131  2  0  0  0  0
130134  1  0  0  0  0
131132  1  0  0  0  0
132133  2  0  0  0  0
132194  1  0  0  0  0
133128  1  0  0  0  0
133151  1  0  0  0  0
134138  2  0  0  0  0
135134  1  0  0  0  0
135136  1  0  0  0  0
136137  2  0  0  0  0
137131  1  0  0  0  0
138139  1  0  0  0  0
138145  1  0  0  0  0
139140  2  0  0  0  0
140141  1  0  0  0  0
141135  1  0  0  0  0
141142  2  0  0  0  0
142143  1  0  0  0  0
142191  1  0  0  0  0
143144  2  0  0  0  0
143153  1  0  0  0  0
144136  1  0  0  0  0
144192  1  0  0  0  0
145146  2  0  0  0  0
145150  1  0  0  0  0
146147  1  0  0  0  0
146195  1  0  0  0  0
147148  2  0  0  0  0
147152  1  0  0  0  0
148139  1  0  0  0  0
148193  1  0  0  0  0
151161  2  0  0  0  0
151162  1  0  0  0  0
152167  2  0  0  0  0
152168  1  0  0  0  0
153164  2  0  0  0  0
153165  1  0  0  0  0
154150  1  0  0  0  0
154123  1  0  0  0  0
154149  1  0  0  0  0
154124  1  0  0  0  0
156157  1  0  0  0  0
157188  1  0  0  0  0
157189  1  0  0  0  0
157190  1  0  0  0  0
158159  1  0  0  0  0
159185  1  0  0  0  0
159186  1  0  0  0  0
159187  1  0  0  0  0
162163  1  0  0  0  0
163182  1  0  0  0  0
163183  1  0  0  0  0
163184  1  0  0  0  0
165166  1  0  0  0  0
166173  1  0  0  0  0
166174  1  0  0  0  0
166175  1  0  0  0  0
168169  1  0  0  0  0
169176  1  0  0  0  0
169177  1  0  0  0  0
169178  1  0  0  0  0
171172  1  0  0  0  0
172179  1  0  0  0  0
172180  1  0  0  0  0
172181  1  0  0  0  0
M  CHG  1   8   1
M  CHG  1  53  -1
M  CHG  1 109   1
M  CHG  1 154  -1
M  END
