 energy: -98.603170341164 gnorm: 0.000172685853 xtb: 6.6.1 (8d0f1dd)
          11142410373D

 64 70  0     0  0            999 V2000
    4.0082    0.8261    1.1393 C   0  0  0  0  0  0  0  0  0  0  0  0
    2.7398    1.3662    0.7333 C   0  0  0  0  0  0  0  0  0  0  0  0
    4.4089   -0.5363    0.9768 C   0  0  0  0  0  0  0  0  0  0  0  0
    4.9322    1.7140    1.7441 C   0  0  0  0  0  0  0  0  0  0  0  0
    2.6588    2.7566    0.4920 C   0  0  0  0  0  0  0  0  0  0  0  0
    5.4391   -1.0400    1.8080 C   0  0  0  0  0  0  0  0  0  0  0  0
    1.5293    0.5984    0.6513 C   0  0  0  0  0  0  0  0  0  0  0  0
    3.8940   -1.4083   -0.0487 C   0  0  0  0  0  0  0  0  0  0  0  0
    0.3834    1.1692    0.0396 C   0  0  0  0  0  0  0  0  0  0  0  0
    4.1740   -2.7958    0.0151 C   0  0  0  0  0  0  0  0  0  0  0  0
    4.7591    3.1073    1.6108 C   0  0  0  0  0  0  0  0  0  0  0  0
    6.0295    1.1933    2.4745 C   0  0  0  0  0  0  0  0  0  0  0  0
    3.7049    3.6072    0.9033 C   0  0  0  0  0  0  0  0  0  0  0  0
    6.2127   -0.1482    2.5850 C   0  0  0  0  0  0  0  0  0  0  0  0
    1.5016    3.2968   -0.1331 C   0  0  0  0  0  0  0  0  0  0  0  0
    5.7045   -2.4301    1.8398 C   0  0  0  0  0  0  0  0  0  0  0  0
    0.4290    2.5189   -0.4079 C   0  0  0  0  0  0  0  0  0  0  0  0
    5.0459   -3.2908    1.0218 C   0  0  0  0  0  0  0  0  0  0  0  0
    1.3739   -0.6751    1.2321 C   0  0  0  0  0  0  0  0  0  0  0  0
    3.1950   -0.9349   -1.1705 C   0  0  0  0  0  0  0  0  0  0  0  0
   -0.8022    0.4361   -0.0679 C   0  0  0  0  0  0  0  0  0  0  0  0
    3.6322   -3.6578   -0.9514 C   0  0  0  0  0  0  0  0  0  0  0  0
    0.1973   -1.3676    1.1519 C   0  0  0  0  0  0  0  0  0  0  0  0
    2.6993   -1.7949   -2.1208 C   0  0  0  0  0  0  0  0  0  0  0  0
   -0.9176   -0.8354    0.4706 C   0  0  0  0  0  0  0  0  0  0  0  0
    2.8859   -3.1699   -1.9950 C   0  0  0  0  0  0  0  0  0  0  0  0
    5.5015    3.7657    2.0424 H   0  0  0  0  0  0  0  0  0  0  0  0
    6.6894    1.8891    2.9761 H   0  0  0  0  0  0  0  0  0  0  0  0
    3.6172    4.6690    0.7142 H   0  0  0  0  0  0  0  0  0  0  0  0
    6.9939   -0.5534    3.2152 H   0  0  0  0  0  0  0  0  0  0  0  0
    1.5053    4.3505   -0.3822 H   0  0  0  0  0  0  0  0  0  0  0  0
    6.4457   -2.7915    2.5413 H   0  0  0  0  0  0  0  0  0  0  0  0
   -0.4410    2.9197   -0.9091 H   0  0  0  0  0  0  0  0  0  0  0  0
    5.2219   -4.3565    1.0764 H   0  0  0  0  0  0  0  0  0  0  0  0
    2.1893   -1.1018    1.7967 H   0  0  0  0  0  0  0  0  0  0  0  0
    3.0651    0.1274   -1.3054 H   0  0  0  0  0  0  0  0  0  0  0  0
   -1.6630    0.8817   -0.5439 H   0  0  0  0  0  0  0  0  0  0  0  0
    3.8283   -4.7184   -0.8666 H   0  0  0  0  0  0  0  0  0  0  0  0
    0.0972   -2.3381    1.6133 H   0  0  0  0  0  0  0  0  0  0  0  0
    2.1590   -1.4009   -2.9699 H   0  0  0  0  0  0  0  0  0  0  0  0
   -2.1667   -1.5671    0.3985 C   0  0  0  0  0  0  0  0  0  0  0  0
    2.4671   -3.8429   -2.7301 H   0  0  0  0  0  0  0  0  0  0  0  0
   -3.7090   -3.2937    0.5239 C   0  0  0  0  0  0  0  0  0  0  0  0
   -4.4352   -1.9828    0.1709 C   0  0  0  0  0  0  0  0  0  0  0  0
   -4.2993   -4.0983    1.6776 C   0  0  0  0  0  0  0  0  0  0  0  0
   -5.1605   -1.3384    1.3620 C   0  0  0  0  0  0  0  0  0  0  0  0
   -5.3969   -2.0417   -1.0114 C   0  0  0  0  0  0  0  0  0  0  0  0
   -3.5042   -4.2305   -0.6754 C   0  0  0  0  0  0  0  0  0  0  0  0
   -2.3699   -2.7979    0.9003 N   0  0  0  0  0  0  0  0  0  0  0  0
   -1.5106   -3.6344    1.4093 O   0  0  0  0  0  0  0  0  0  0  0  0
   -3.3010   -1.0957   -0.1536 N   0  0  0  0  0  0  0  0  0  0  0  0
   -3.5505    0.0886   -0.6421 O   0  0  0  0  0  0  0  0  0  0  0  0
   -3.0852   -3.6839   -1.5174 H   0  0  0  0  0  0  0  0  0  0  0  0
   -4.4349   -4.7078   -0.9735 H   0  0  0  0  0  0  0  0  0  0  0  0
   -2.7874   -4.9938   -0.3782 H   0  0  0  0  0  0  0  0  0  0  0  0
   -4.4153   -3.4917    2.5702 H   0  0  0  0  0  0  0  0  0  0  0  0
   -3.6030   -4.9014    1.9099 H   0  0  0  0  0  0  0  0  0  0  0  0
   -5.2623   -4.5197    1.3976 H   0  0  0  0  0  0  0  0  0  0  0  0
   -4.4976   -1.2773    2.2225 H   0  0  0  0  0  0  0  0  0  0  0  0
   -6.0596   -1.8886    1.6296 H   0  0  0  0  0  0  0  0  0  0  0  0
   -5.4321   -0.3247    1.0728 H   0  0  0  0  0  0  0  0  0  0  0  0
   -4.9225   -2.4589   -1.8938 H   0  0  0  0  0  0  0  0  0  0  0  0
   -5.6940   -1.0212   -1.2440 H   0  0  0  0  0  0  0  0  0  0  0  0
   -6.2771   -2.6297   -0.7603 H   0  0  0  0  0  0  0  0  0  0  0  0
  1  2  1  0  0  0  0
  1  3  1  0  0  0  0
  1  4  2  0  0  0  0
  2  5  2  0  0  0  0
  2  7  1  0  0  0  0
  3  6  2  0  0  0  0
  3  8  1  0  0  0  0
  4 11  1  0  0  0  0
  4 12  1  0  0  0  0
  5 13  1  0  0  0  0
  5 15  1  0  0  0  0
  6 14  1  0  0  0  0
  6 16  1  0  0  0  0
  7  9  1  0  0  0  0
  7 19  2  0  0  0  0
  8 10  1  0  0  0  0
  8 20  2  0  0  0  0
  9 17  1  0  0  0  0
  9 21  2  0  0  0  0
 10 18  1  0  0  0  0
 10 22  2  0  0  0  0
 11 13  2  0  0  0  0
 11 27  1  0  0  0  0
 12 14  2  0  0  0  0
 12 28  1  0  0  0  0
 13 29  1  0  0  0  0
 14 30  1  0  0  0  0
 15 17  2  0  0  0  0
 15 31  1  0  0  0  0
 16 18  2  0  0  0  0
 16 32  1  0  0  0  0
 17 33  1  0  0  0  0
 18 34  1  0  0  0  0
 19 23  1  0  0  0  0
 19 35  1  0  0  0  0
 20 24  1  0  0  0  0
 20 36  1  0  0  0  0
 21 25  1  0  0  0  0
 21 37  1  0  0  0  0
 22 26  1  0  0  0  0
 22 38  1  0  0  0  0
 23 25  2  0  0  0  0
 23 39  1  0  0  0  0
 24 26  2  0  0  0  0
 24 40  1  0  0  0  0
 25 41  1  0  0  0  0
 26 42  1  0  0  0  0
 41 49  2  0  0  0  0
 41 51  1  0  0  0  0
 43 49  1  0  0  0  0
 43 44  1  0  0  0  0
 43 45  1  0  0  0  0
 43 48  1  0  0  0  0
 44 51  1  0  0  0  0
 44 46  1  0  0  0  0
 44 47  1  0  0  0  0
 45 56  1  0  0  0  0
 45 57  1  0  0  0  0
 45 58  1  0  0  0  0
 46 59  1  0  0  0  0
 46 60  1  0  0  0  0
 46 61  1  0  0  0  0
 47 62  1  0  0  0  0
 47 63  1  0  0  0  0
 47 64  1  0  0  0  0
 48 53  1  0  0  0  0
 48 54  1  0  0  0  0
 48 55  1  0  0  0  0
 49 50  2  0  0  0  0
 51 52  1  0  0  0  0
M  CHG  1  52  -1
M  END
