 energy: -196.369665966266 gnorm: 0.000281712520 xtb: 6.6.1 (8d0f1dd)
          11142410443D

128140  0     0  0            999 V2000
    3.7471    0.8122    1.4076 C   0  0  0  0  0  0  0  0  0  0  0  0
    2.5614    1.5309    1.0362 C   0  0  0  0  0  0  0  0  0  0  0  0
    3.9509   -0.5937    1.2260 C   0  0  0  0  0  0  0  0  0  0  0  0
    4.8084    1.5560    1.9759 C   0  0  0  0  0  0  0  0  0  0  0  0
    2.6622    2.9188    0.8060 C   0  0  0  0  0  0  0  0  0  0  0  0
    4.9374   -1.2353    2.0054 C   0  0  0  0  0  0  0  0  0  0  0  0
    1.2551    0.9383    0.9552 C   0  0  0  0  0  0  0  0  0  0  0  0
    3.2666   -1.3791    0.2308 C   0  0  0  0  0  0  0  0  0  0  0  0
    0.2024    1.6548    0.3329 C   0  0  0  0  0  0  0  0  0  0  0  0
    3.3351   -2.7924    0.3021 C   0  0  0  0  0  0  0  0  0  0  0  0
    4.8351    2.9624    1.8329 C   0  0  0  0  0  0  0  0  0  0  0  0
    5.8490    0.8885    2.6643 C   0  0  0  0  0  0  0  0  0  0  0  0
    3.8401    3.6104    1.1700 C   0  0  0  0  0  0  0  0  0  0  0  0
    5.8526   -0.4663    2.7618 C   0  0  0  0  0  0  0  0  0  0  0  0
    1.5740    3.6261    0.2252 C   0  0  0  0  0  0  0  0  0  0  0  0
    5.0147   -2.6525    2.0229 C   0  0  0  0  0  0  0  0  0  0  0  0
    0.4073    3.0043   -0.0655 C   0  0  0  0  0  0  0  0  0  0  0  0
    4.1905   -3.4070    1.2560 C   0  0  0  0  0  0  0  0  0  0  0  0
    0.9351   -0.3036    1.5335 C   0  0  0  0  0  0  0  0  0  0  0  0
    2.6031   -0.8107   -0.8702 C   0  0  0  0  0  0  0  0  0  0  0  0
   -1.0340    1.0326    0.1247 C   0  0  0  0  0  0  0  0  0  0  0  0
    2.6059   -3.5678   -0.6154 C   0  0  0  0  0  0  0  0  0  0  0  0
   -0.2891   -0.8870    1.3640 C   0  0  0  0  0  0  0  0  0  0  0  0
    1.9244   -1.5894   -1.7737 C   0  0  0  0  0  0  0  0  0  0  0  0
   -1.2752   -0.2523    0.5805 C   0  0  0  0  0  0  0  0  0  0  0  0
    1.8879   -2.9773   -1.6233 C   0  0  0  0  0  0  0  0  0  0  0  0
    5.6919    3.4989    2.2116 H   0  0  0  0  0  0  0  0  0  0  0  0
    6.6178    1.4825    3.1349 H   0  0  0  0  0  0  0  0  0  0  0  0
    3.9020    4.6700    0.9707 H   0  0  0  0  0  0  0  0  0  0  0  0
    6.5914   -0.9802    3.3584 H   0  0  0  0  0  0  0  0  0  0  0  0
    1.7126    4.6737    0.0016 H   0  0  0  0  0  0  0  0  0  0  0  0
    5.7362   -3.1133    2.6810 H   0  0  0  0  0  0  0  0  0  0  0  0
   -0.3982    3.5263   -0.5591 H   0  0  0  0  0  0  0  0  0  0  0  0
    4.2177   -4.4853    1.3068 H   0  0  0  0  0  0  0  0  0  0  0  0
    1.6724   -0.8028    2.1368 H   0  0  0  0  0  0  0  0  0  0  0  0
    2.6597    0.2541   -1.0330 H   0  0  0  0  0  0  0  0  0  0  0  0
   -1.7954    1.5798   -0.4080 H   0  0  0  0  0  0  0  0  0  0  0  0
    2.6455   -4.6441   -0.5281 H   0  0  0  0  0  0  0  0  0  0  0  0
   -0.5000   -1.8426    1.8164 H   0  0  0  0  0  0  0  0  0  0  0  0
    1.4271   -1.1271   -2.6133 H   0  0  0  0  0  0  0  0  0  0  0  0
   -2.4907   -0.9529    0.2099 C   0  0  0  0  0  0  0  0  0  0  0  0
    1.3350   -3.5815   -2.3274 H   0  0  0  0  0  0  0  0  0  0  0  0
   -4.0343   -2.6698   -0.0381 C   0  0  0  0  0  0  0  0  0  0  0  0
   -4.4173   -1.5097   -0.9763 C   0  0  0  0  0  0  0  0  0  0  0  0
   -5.1751   -3.2619    0.7746 C   0  0  0  0  0  0  0  0  0  0  0  0
   -5.5456   -0.6303   -0.4227 C   0  0  0  0  0  0  0  0  0  0  0  0
   -4.7140   -1.8800   -2.4214 C   0  0  0  0  0  0  0  0  0  0  0  0
   -3.2722   -3.7948   -0.7514 C   0  0  0  0  0  0  0  0  0  0  0  0
   -3.0374   -2.0092    0.8332 N   0  0  0  0  0  0  0  0  0  0  0  0
   -2.7318   -2.4841    1.9541 O   0  0  0  0  0  0  0  0  0  0  0  0
   -3.1950   -0.6825   -0.9076 N   0  0  0  0  0  0  0  0  0  0  0  0
   -2.9459    0.1752   -1.7691 O   0  0  0  0  0  0  0  0  0  0  0  0
   -2.4550   -3.4008   -1.3521 H   0  0  0  0  0  0  0  0  0  0  0  0
   -3.9433   -4.3643   -1.3869 H   0  0  0  0  0  0  0  0  0  0  0  0
   -2.8518   -4.4667   -0.0054 H   0  0  0  0  0  0  0  0  0  0  0  0
   -5.6429   -2.5205    1.4147 H   0  0  0  0  0  0  0  0  0  0  0  0
   -4.7960   -4.0681    1.3973 H   0  0  0  0  0  0  0  0  0  0  0  0
   -5.9237   -3.6713    0.1028 H   0  0  0  0  0  0  0  0  0  0  0  0
   -5.3578   -0.3462    0.6110 H   0  0  0  0  0  0  0  0  0  0  0  0
   -6.4983   -1.1470   -0.4869 H   0  0  0  0  0  0  0  0  0  0  0  0
   -5.6076    0.2770   -1.0202 H   0  0  0  0  0  0  0  0  0  0  0  0
   -3.8753   -2.3857   -2.8898 H   0  0  0  0  0  0  0  0  0  0  0  0
   -4.9132   -0.9735   -2.9873 H   0  0  0  0  0  0  0  0  0  0  0  0
   -5.5899   -2.5203   -2.4687 H   0  0  0  0  0  0  0  0  0  0  0  0
    4.2230    0.8940    5.7234 C   0  0  0  0  0  0  0  0  0  0  0  0
    2.9368    1.3168    5.2413 C   0  0  0  0  0  0  0  0  0  0  0  0
    4.5923   -0.4542    6.0566 C   0  0  0  0  0  0  0  0  0  0  0  0
    5.2059    1.9023    5.8929 C   0  0  0  0  0  0  0  0  0  0  0  0
    2.8271    2.5605    4.5845 C   0  0  0  0  0  0  0  0  0  0  0  0
    5.7070   -0.6486    6.9024 C   0  0  0  0  0  0  0  0  0  0  0  0
    1.7166    0.5879    5.4545 C   0  0  0  0  0  0  0  0  0  0  0  0
    3.9450   -1.6392    5.5454 C   0  0  0  0  0  0  0  0  0  0  0  0
    0.5730    0.9042    4.6788 C   0  0  0  0  0  0  0  0  0  0  0  0
    4.2076   -2.8943    6.1501 C   0  0  0  0  0  0  0  0  0  0  0  0
    5.0133    3.1913    5.3463 C   0  0  0  0  0  0  0  0  0  0  0  0
    6.3864    1.6383    6.6276 C   0  0  0  0  0  0  0  0  0  0  0  0
    3.8940    3.4850    4.6351 C   0  0  0  0  0  0  0  0  0  0  0  0
    6.5822    0.4235    7.1969 C   0  0  0  0  0  0  0  0  0  0  0  0
    1.6339    2.9079    3.8953 C   0  0  0  0  0  0  0  0  0  0  0  0
    5.9722   -1.9257    7.4621 C   0  0  0  0  0  0  0  0  0  0  0  0
    0.5724    2.0692    3.8660 C   0  0  0  0  0  0  0  0  0  0  0  0
    5.2044   -2.9990    7.1546 C   0  0  0  0  0  0  0  0  0  0  0  0
    1.5718   -0.3972    6.4499 C   0  0  0  0  0  0  0  0  0  0  0  0
    3.1046   -1.6311    4.4207 C   0  0  0  0  0  0  0  0  0  0  0  0
   -0.5637    0.0914    4.7523 C   0  0  0  0  0  0  0  0  0  0  0  0
    3.5176   -4.0392    5.7160 C   0  0  0  0  0  0  0  0  0  0  0  0
    0.4443   -1.1643    6.5403 C   0  0  0  0  0  0  0  0  0  0  0  0
    2.4615   -2.7670    3.9961 C   0  0  0  0  0  0  0  0  0  0  0  0
   -0.6184   -0.9736    5.6320 C   0  0  0  0  0  0  0  0  0  0  0  0
    2.6361   -3.9758    4.6703 C   0  0  0  0  0  0  0  0  0  0  0  0
    5.7922    3.9269    5.4831 H   0  0  0  0  0  0  0  0  0  0  0  0
    7.0996    2.4378    6.7612 H   0  0  0  0  0  0  0  0  0  0  0  0
    3.7692    4.4461    4.1602 H   0  0  0  0  0  0  0  0  0  0  0  0
    7.4326    0.2363    7.8351 H   0  0  0  0  0  0  0  0  0  0  0  0
    1.6086    3.8521    3.3724 H   0  0  0  0  0  0  0  0  0  0  0  0
    6.7944   -2.0133    8.1567 H   0  0  0  0  0  0  0  0  0  0  0  0
   -0.3106    2.2982    3.2889 H   0  0  0  0  0  0  0  0  0  0  0  0
    5.3752   -3.9590    7.6183 H   0  0  0  0  0  0  0  0  0  0  0  0
    2.3596   -0.5373    7.1726 H   0  0  0  0  0  0  0  0  0  0  0  0
    2.9892   -0.7131    3.8678 H   0  0  0  0  0  0  0  0  0  0  0  0
   -1.3972    0.3152    4.1066 H   0  0  0  0  0  0  0  0  0  0  0  0
    3.7102   -4.9768    6.2162 H   0  0  0  0  0  0  0  0  0  0  0  0
    0.3702   -1.9171    7.3071 H   0  0  0  0  0  0  0  0  0  0  0  0
    1.8184   -2.7355    3.1289 H   0  0  0  0  0  0  0  0  0  0  0  0
   -1.7676   -1.8596    5.6505 C   0  0  0  0  0  0  0  0  0  0  0  0
    2.1035   -4.8567    4.3466 H   0  0  0  0  0  0  0  0  0  0  0  0
   -3.0238   -3.8186    5.7841 C   0  0  0  0  0  0  0  0  0  0  0  0
   -3.9676   -2.6184    5.5853 C   0  0  0  0  0  0  0  0  0  0  0  0
   -3.3593   -4.7602    6.9328 C   0  0  0  0  0  0  0  0  0  0  0  0
   -4.6709   -2.1662    6.8703 C   0  0  0  0  0  0  0  0  0  0  0  0
   -4.9766   -2.7479    4.4540 C   0  0  0  0  0  0  0  0  0  0  0  0
   -2.7893   -4.6299    4.5034 C   0  0  0  0  0  0  0  0  0  0  0  0
   -1.7390   -3.1415    6.0572 N   0  0  0  0  0  0  0  0  0  0  0  0
   -0.7697   -3.7664    6.5076 O   0  0  0  0  0  0  0  0  0  0  0  0
   -3.0119   -1.5411    5.2538 N   0  0  0  0  0  0  0  0  0  0  0  0
   -3.4001   -0.4732    4.7615 O   0  0  0  0  0  0  0  0  0  0  0  0
   -2.5522   -3.9828    3.6619 H   0  0  0  0  0  0  0  0  0  0  0  0
   -3.6677   -5.2233    4.2682 H   0  0  0  0  0  0  0  0  0  0  0  0
   -1.9517   -5.3045    4.6685 H   0  0  0  0  0  0  0  0  0  0  0  0
   -3.4090   -4.2399    7.8844 H   0  0  0  0  0  0  0  0  0  0  0  0
   -2.5831   -5.5179    7.0071 H   0  0  0  0  0  0  0  0  0  0  0  0
   -4.3097   -5.2513    6.7463 H   0  0  0  0  0  0  0  0  0  0  0  0
   -3.9659   -2.0407    7.6892 H   0  0  0  0  0  0  0  0  0  0  0  0
   -5.4319   -2.8848    7.1587 H   0  0  0  0  0  0  0  0  0  0  0  0
   -5.1521   -1.2072    6.6884 H   0  0  0  0  0  0  0  0  0  0  0  0
   -4.4597   -2.8432    3.5045 H   0  0  0  0  0  0  0  0  0  0  0  0
   -5.5928   -1.8529    4.4208 H   0  0  0  0  0  0  0  0  0  0  0  0
   -5.6175   -3.6092    4.6149 H   0  0  0  0  0  0  0  0  0  0  0  0
  1  2  1  0  0  0  0
  1  3  1  0  0  0  0
  1  4  2  0  0  0  0
  2  5  2  0  0  0  0
  2  7  1  0  0  0  0
  3  6  2  0  0  0  0
  3  8  1  0  0  0  0
  4 11  1  0  0  0  0
  4 12  1  0  0  0  0
  5 13  1  0  0  0  0
  5 15  1  0  0  0  0
  6 14  1  0  0  0  0
  6 16  1  0  0  0  0
  7  9  1  0  0  0  0
  7 19  2  0  0  0  0
  8 10  1  0  0  0  0
  8 20  2  0  0  0  0
  9 17  1  0  0  0  0
  9 21  2  0  0  0  0
 10 18  1  0  0  0  0
 10 22  2  0  0  0  0
 11 13  2  0  0  0  0
 11 27  1  0  0  0  0
 12 14  2  0  0  0  0
 12 28  1  0  0  0  0
 13 29  1  0  0  0  0
 14 30  1  0  0  0  0
 15 17  2  0  0  0  0
 15 31  1  0  0  0  0
 16 18  2  0  0  0  0
 16 32  1  0  0  0  0
 17 33  1  0  0  0  0
 18 34  1  0  0  0  0
 19 23  1  0  0  0  0
 19 35  1  0  0  0  0
 20 24  1  0  0  0  0
 20 36  1  0  0  0  0
 21 25  1  0  0  0  0
 21 37  1  0  0  0  0
 22 26  1  0  0  0  0
 22 38  1  0  0  0  0
 23 25  2  0  0  0  0
 23 39  1  0  0  0  0
 24 26  2  0  0  0  0
 24 40  1  0  0  0  0
 25 41  1  0  0  0  0
 26 42  1  0  0  0  0
 41 49  2  0  0  0  0
 41 51  1  0  0  0  0
 43 49  1  0  0  0  0
 43 44  1  0  0  0  0
 43 45  1  0  0  0  0
 43 48  1  0  0  0  0
 44 51  1  0  0  0  0
 44 46  1  0  0  0  0
 44 47  1  0  0  0  0
 45 56  1  0  0  0  0
 45 57  1  0  0  0  0
 45 58  1  0  0  0  0
 46 59  1  0  0  0  0
 46 60  1  0  0  0  0
 46 61  1  0  0  0  0
 47 62  1  0  0  0  0
 47 63  1  0  0  0  0
 47 64  1  0  0  0  0
 48 53  1  0  0  0  0
 48 54  1  0  0  0  0
 48 55  1  0  0  0  0
 49 50  2  0  0  0  0
 51 52  1  0  0  0  0
 65 66  1  0  0  0  0
 65 67  1  0  0  0  0
 65 68  2  0  0  0  0
 66 69  2  0  0  0  0
 66 71  1  0  0  0  0
 67 70  2  0  0  0  0
 67 72  1  0  0  0  0
 68 75  1  0  0  0  0
 68 76  1  0  0  0  0
 69 77  1  0  0  0  0
 69 79  1  0  0  0  0
 70 78  1  0  0  0  0
 70 80  1  0  0  0  0
 71 73  1  0  0  0  0
 71 83  2  0  0  0  0
 72 74  1  0  0  0  0
 72 84  2  0  0  0  0
 73 81  1  0  0  0  0
 73 85  2  0  0  0  0
 74 82  1  0  0  0  0
 74 86  2  0  0  0  0
 75 77  2  0  0  0  0
 75 91  1  0  0  0  0
 76 78  2  0  0  0  0
 76 92  1  0  0  0  0
 77 93  1  0  0  0  0
 78 94  1  0  0  0  0
 79 81  2  0  0  0  0
 79 95  1  0  0  0  0
 80 82  2  0  0  0  0
 80 96  1  0  0  0  0
 81 97  1  0  0  0  0
 82 98  1  0  0  0  0
 83 87  1  0  0  0  0
 83 99  1  0  0  0  0
 84 88  1  0  0  0  0
 84100  1  0  0  0  0
 85 89  1  0  0  0  0
 85101  1  0  0  0  0
 86 90  1  0  0  0  0
 86102  1  0  0  0  0
 87 89  2  0  0  0  0
 87103  1  0  0  0  0
 88 90  2  0  0  0  0
 88104  1  0  0  0  0
 89105  1  0  0  0  0
 90106  1  0  0  0  0
105113  2  0  0  0  0
105115  1  0  0  0  0
107113  1  0  0  0  0
107108  1  0  0  0  0
107109  1  0  0  0  0
107112  1  0  0  0  0
108115  1  0  0  0  0
108110  1  0  0  0  0
108111  1  0  0  0  0
109120  1  0  0  0  0
109121  1  0  0  0  0
109122  1  0  0  0  0
110123  1  0  0  0  0
110124  1  0  0  0  0
110125  1  0  0  0  0
111126  1  0  0  0  0
111127  1  0  0  0  0
111128  1  0  0  0  0
112117  1  0  0  0  0
112118  1  0  0  0  0
112119  1  0  0  0  0
113114  2  0  0  0  0
115116  1  0  0  0  0
M  CHG  1   1   1
M  END
