 energy: -197.015819709748 gnorm: 0.000360392586 xtb: 6.6.1 (8d0f1dd)
          11142410433D

128140  0     0  0            999 V2000
    3.6869    0.8690    1.3929 C   0  0  0  0  0  0  0  0  0  0  0  0
    2.5005    1.5718    0.9954 C   0  0  0  0  0  0  0  0  0  0  0  0
    3.8797   -0.5487    1.2917 C   0  0  0  0  0  0  0  0  0  0  0  0
    4.7614    1.6326    1.9063 C   0  0  0  0  0  0  0  0  0  0  0  0
    2.6085    2.9444    0.6938 C   0  0  0  0  0  0  0  0  0  0  0  0
    4.8652   -1.1525    2.0978 C   0  0  0  0  0  0  0  0  0  0  0  0
    1.1948    0.9750    0.9312 C   0  0  0  0  0  0  0  0  0  0  0  0
    3.1836   -1.3874    0.3502 C   0  0  0  0  0  0  0  0  0  0  0  0
    0.1568    1.6464    0.2392 C   0  0  0  0  0  0  0  0  0  0  0  0
    3.2385   -2.7939    0.5041 C   0  0  0  0  0  0  0  0  0  0  0  0
    4.7927    3.0310    1.6979 C   0  0  0  0  0  0  0  0  0  0  0  0
    5.8049    0.9953    2.6170 C   0  0  0  0  0  0  0  0  0  0  0  0
    3.7902    3.6487    1.0210 C   0  0  0  0  0  0  0  0  0  0  0  0
    5.7960   -0.3500    2.7981 C   0  0  0  0  0  0  0  0  0  0  0  0
    1.5250    3.6211    0.0708 C   0  0  0  0  0  0  0  0  0  0  0  0
    4.9326   -2.5678    2.1971 C   0  0  0  0  0  0  0  0  0  0  0  0
    0.3683    2.9765   -0.2138 C   0  0  0  0  0  0  0  0  0  0  0  0
    4.0968   -3.3594    1.4848 C   0  0  0  0  0  0  0  0  0  0  0  0
    0.8589   -0.2310    1.5710 C   0  0  0  0  0  0  0  0  0  0  0  0
    2.5136   -0.8801   -0.7771 C   0  0  0  0  0  0  0  0  0  0  0  0
   -1.0677    1.0034    0.0208 C   0  0  0  0  0  0  0  0  0  0  0  0
    2.4855   -3.6139   -0.3535 C   0  0  0  0  0  0  0  0  0  0  0  0
   -0.3584   -0.8269    1.3942 C   0  0  0  0  0  0  0  0  0  0  0  0
    1.8125   -1.7026   -1.6205 C   0  0  0  0  0  0  0  0  0  0  0  0
   -1.3199   -0.2578    0.5327 C   0  0  0  0  0  0  0  0  0  0  0  0
    1.7576   -3.0780   -1.3824 C   0  0  0  0  0  0  0  0  0  0  0  0
    5.6519    3.5832    2.0521 H   0  0  0  0  0  0  0  0  0  0  0  0
    6.5823    1.6096    3.0487 H   0  0  0  0  0  0  0  0  0  0  0  0
    3.8480    4.7018    0.7796 H   0  0  0  0  0  0  0  0  0  0  0  0
    6.5321   -0.8344    3.4241 H   0  0  0  0  0  0  0  0  0  0  0  0
    1.6612    4.6619   -0.1925 H   0  0  0  0  0  0  0  0  0  0  0  0
    5.6513   -2.9932    2.8836 H   0  0  0  0  0  0  0  0  0  0  0  0
   -0.4334    3.4713   -0.7434 H   0  0  0  0  0  0  0  0  0  0  0  0
    4.1068   -4.4330    1.6076 H   0  0  0  0  0  0  0  0  0  0  0  0
    1.5764   -0.6867    2.2319 H   0  0  0  0  0  0  0  0  0  0  0  0
    2.5717    0.1740   -0.9985 H   0  0  0  0  0  0  0  0  0  0  0  0
   -1.8213    1.4949   -0.5750 H   0  0  0  0  0  0  0  0  0  0  0  0
    2.5062   -4.6831   -0.1935 H   0  0  0  0  0  0  0  0  0  0  0  0
   -0.6008   -1.7490    1.8988 H   0  0  0  0  0  0  0  0  0  0  0  0
    1.2980   -1.2845   -2.4733 H   0  0  0  0  0  0  0  0  0  0  0  0
   -2.5214   -0.9850    0.1697 C   0  0  0  0  0  0  0  0  0  0  0  0
    1.1722   -3.7145   -2.0303 H   0  0  0  0  0  0  0  0  0  0  0  0
   -3.9504   -2.7736   -0.1657 C   0  0  0  0  0  0  0  0  0  0  0  0
   -4.5097   -1.5350   -0.8874 C   0  0  0  0  0  0  0  0  0  0  0  0
   -4.9519   -3.5655    0.6640 C   0  0  0  0  0  0  0  0  0  0  0  0
   -5.6497   -0.8452   -0.1254 C   0  0  0  0  0  0  0  0  0  0  0  0
   -4.9265   -1.7380   -2.3387 C   0  0  0  0  0  0  0  0  0  0  0  0
   -3.2016   -3.7405   -1.0963 C   0  0  0  0  0  0  0  0  0  0  0  0
   -2.9165   -2.1597    0.6918 N   0  0  0  0  0  0  0  0  0  0  0  0
   -2.3943   -2.8432    1.6620 O   0  0  0  0  0  0  0  0  0  0  0  0
   -3.3540   -0.6178   -0.8183 N   0  0  0  0  0  0  0  0  0  0  0  0
   -3.3323    0.4419   -1.5565 O   0  0  0  0  0  0  0  0  0  0  0  0
   -2.4890   -3.1994   -1.7155 H   0  0  0  0  0  0  0  0  0  0  0  0
   -3.8893   -4.2954   -1.7297 H   0  0  0  0  0  0  0  0  0  0  0  0
   -2.6464   -4.4413   -0.4754 H   0  0  0  0  0  0  0  0  0  0  0  0
   -5.4741   -2.9328    1.3731 H   0  0  0  0  0  0  0  0  0  0  0  0
   -4.4070   -4.3216    1.2245 H   0  0  0  0  0  0  0  0  0  0  0  0
   -5.6742   -4.0518    0.0122 H   0  0  0  0  0  0  0  0  0  0  0  0
   -5.3744   -0.6953    0.9162 H   0  0  0  0  0  0  0  0  0  0  0  0
   -6.5702   -1.4208   -0.1820 H   0  0  0  0  0  0  0  0  0  0  0  0
   -5.8139    0.1313   -0.5769 H   0  0  0  0  0  0  0  0  0  0  0  0
   -4.1224   -2.1659   -2.9291 H   0  0  0  0  0  0  0  0  0  0  0  0
   -5.1653   -0.7641   -2.7599 H   0  0  0  0  0  0  0  0  0  0  0  0
   -5.8006   -2.3823   -2.3954 H   0  0  0  0  0  0  0  0  0  0  0  0
    4.3038    0.8480    5.7470 C   0  0  0  0  0  0  0  0  0  0  0  0
    3.0169    1.3267    5.3252 C   0  0  0  0  0  0  0  0  0  0  0  0
    4.6278   -0.5203    6.0503 C   0  0  0  0  0  0  0  0  0  0  0  0
    5.3384    1.8078    5.8691 C   0  0  0  0  0  0  0  0  0  0  0  0
    2.9435    2.5596    4.6453 C   0  0  0  0  0  0  0  0  0  0  0  0
    5.7755   -0.7754    6.8295 C   0  0  0  0  0  0  0  0  0  0  0  0
    1.7770    0.6504    5.5920 C   0  0  0  0  0  0  0  0  0  0  0  0
    3.8978   -1.6665    5.5646 C   0  0  0  0  0  0  0  0  0  0  0  0
    0.6268    0.9932    4.8382 C   0  0  0  0  0  0  0  0  0  0  0  0
    4.1282   -2.9381    6.1452 C   0  0  0  0  0  0  0  0  0  0  0  0
    5.1790    3.1053    5.3284 C   0  0  0  0  0  0  0  0  0  0  0  0
    6.5392    1.4830    6.5409 C   0  0  0  0  0  0  0  0  0  0  0  0
    4.0503    3.4372    4.6523 C   0  0  0  0  0  0  0  0  0  0  0  0
    6.7108    0.2534    7.0869 C   0  0  0  0  0  0  0  0  0  0  0  0
    1.7507    2.9318    3.9690 C   0  0  0  0  0  0  0  0  0  0  0  0
    6.0153   -2.0735    7.3551 C   0  0  0  0  0  0  0  0  0  0  0  0
    0.6585    2.1326    3.9901 C   0  0  0  0  0  0  0  0  0  0  0  0
    5.1801   -3.1029    7.0840 C   0  0  0  0  0  0  0  0  0  0  0  0
    1.6285   -0.3253    6.5951 C   0  0  0  0  0  0  0  0  0  0  0  0
    2.9919   -1.6056    4.4923 C   0  0  0  0  0  0  0  0  0  0  0  0
   -0.5323    0.2177    4.9477 C   0  0  0  0  0  0  0  0  0  0  0  0
    3.3435   -4.0371    5.7566 C   0  0  0  0  0  0  0  0  0  0  0  0
    0.4802   -1.0591    6.7117 C   0  0  0  0  0  0  0  0  0  0  0  0
    2.2525   -2.6961    4.1130 C   0  0  0  0  0  0  0  0  0  0  0  0
   -0.5944   -0.8467    5.8266 C   0  0  0  0  0  0  0  0  0  0  0  0
    2.3946   -3.9142    4.7785 C   0  0  0  0  0  0  0  0  0  0  0  0
    5.9946    3.8084    5.4327 H   0  0  0  0  0  0  0  0  0  0  0  0
    7.2967    2.2486    6.6428 H   0  0  0  0  0  0  0  0  0  0  0  0
    3.9518    4.3956    4.1627 H   0  0  0  0  0  0  0  0  0  0  0  0
    7.5878    0.0207    7.6757 H   0  0  0  0  0  0  0  0  0  0  0  0
    1.7551    3.8544    3.4059 H   0  0  0  0  0  0  0  0  0  0  0  0
    6.8747   -2.2082    7.9985 H   0  0  0  0  0  0  0  0  0  0  0  0
   -0.2233    2.3692    3.4136 H   0  0  0  0  0  0  0  0  0  0  0  0
    5.3293   -4.0767    7.5301 H   0  0  0  0  0  0  0  0  0  0  0  0
    2.4362   -0.4921    7.2926 H   0  0  0  0  0  0  0  0  0  0  0  0
    2.8954   -0.6809    3.9482 H   0  0  0  0  0  0  0  0  0  0  0  0
   -1.3868    0.4550    4.3337 H   0  0  0  0  0  0  0  0  0  0  0  0
    3.5118   -4.9874    6.2445 H   0  0  0  0  0  0  0  0  0  0  0  0
    0.3981   -1.8305    7.4601 H   0  0  0  0  0  0  0  0  0  0  0  0
    1.5502   -2.6199    3.2972 H   0  0  0  0  0  0  0  0  0  0  0  0
   -1.7384   -1.7370    5.8115 C   0  0  0  0  0  0  0  0  0  0  0  0
    1.7753   -4.7532    4.5022 H   0  0  0  0  0  0  0  0  0  0  0  0
   -2.9199   -3.7296    5.7584 C   0  0  0  0  0  0  0  0  0  0  0  0
   -3.8736   -2.5608    5.4241 C   0  0  0  0  0  0  0  0  0  0  0  0
   -3.3809   -4.6666    6.8726 C   0  0  0  0  0  0  0  0  0  0  0  0
   -4.8726   -2.2174    6.5361 C   0  0  0  0  0  0  0  0  0  0  0  0
   -4.6151   -2.6844    4.0974 C   0  0  0  0  0  0  0  0  0  0  0  0
   -2.5113   -4.5725    4.5438 C   0  0  0  0  0  0  0  0  0  0  0  0
   -1.7032   -3.0194    6.2002 N   0  0  0  0  0  0  0  0  0  0  0  0
   -0.7215   -3.6681    6.7189 O   0  0  0  0  0  0  0  0  0  0  0  0
   -2.9437   -1.4189    5.3265 N   0  0  0  0  0  0  0  0  0  0  0  0
   -3.3768   -0.2641    4.9727 O   0  0  0  0  0  0  0  0  0  0  0  0
   -2.2042   -3.9488    3.7080 H   0  0  0  0  0  0  0  0  0  0  0  0
   -3.3278   -5.2163    4.2269 H   0  0  0  0  0  0  0  0  0  0  0  0
   -1.6656   -5.1915    4.8379 H   0  0  0  0  0  0  0  0  0  0  0  0
   -3.6030   -4.1265    7.7882 H   0  0  0  0  0  0  0  0  0  0  0  0
   -2.5692   -5.3592    7.0839 H   0  0  0  0  0  0  0  0  0  0  0  0
   -4.2597   -5.2259    6.5615 H   0  0  0  0  0  0  0  0  0  0  0  0
   -4.3652   -2.0828    7.4890 H   0  0  0  0  0  0  0  0  0  0  0  0
   -5.6333   -2.9875    6.6337 H   0  0  0  0  0  0  0  0  0  0  0  0
   -5.3497   -1.2746    6.2749 H   0  0  0  0  0  0  0  0  0  0  0  0
   -3.9080   -2.7834    3.2776 H   0  0  0  0  0  0  0  0  0  0  0  0
   -5.1872   -1.7719    3.9426 H   0  0  0  0  0  0  0  0  0  0  0  0
   -5.2906   -3.5367    4.1113 H   0  0  0  0  0  0  0  0  0  0  0  0
  1  2  1  0  0  0  0
  1  3  1  0  0  0  0
  1  4  2  0  0  0  0
  2  5  2  0  0  0  0
  2  7  1  0  0  0  0
  3  6  2  0  0  0  0
  3  8  1  0  0  0  0
  4 11  1  0  0  0  0
  4 12  1  0  0  0  0
  5 13  1  0  0  0  0
  5 15  1  0  0  0  0
  6 14  1  0  0  0  0
  6 16  1  0  0  0  0
  7  9  1  0  0  0  0
  7 19  2  0  0  0  0
  8 10  1  0  0  0  0
  8 20  2  0  0  0  0
  9 17  1  0  0  0  0
  9 21  2  0  0  0  0
 10 18  1  0  0  0  0
 10 22  2  0  0  0  0
 11 13  2  0  0  0  0
 11 27  1  0  0  0  0
 12 14  2  0  0  0  0
 12 28  1  0  0  0  0
 13 29  1  0  0  0  0
 14 30  1  0  0  0  0
 15 17  2  0  0  0  0
 15 31  1  0  0  0  0
 16 18  2  0  0  0  0
 16 32  1  0  0  0  0
 17 33  1  0  0  0  0
 18 34  1  0  0  0  0
 19 23  1  0  0  0  0
 19 35  1  0  0  0  0
 20 24  1  0  0  0  0
 20 36  1  0  0  0  0
 21 25  1  0  0  0  0
 21 37  1  0  0  0  0
 22 26  1  0  0  0  0
 22 38  1  0  0  0  0
 23 25  2  0  0  0  0
 23 39  1  0  0  0  0
 24 26  2  0  0  0  0
 24 40  1  0  0  0  0
 25 41  1  0  0  0  0
 26 42  1  0  0  0  0
 41 49  2  0  0  0  0
 41 51  1  0  0  0  0
 43 49  1  0  0  0  0
 43 44  1  0  0  0  0
 43 45  1  0  0  0  0
 43 48  1  0  0  0  0
 44 51  1  0  0  0  0
 44 46  1  0  0  0  0
 44 47  1  0  0  0  0
 45 56  1  0  0  0  0
 45 57  1  0  0  0  0
 45 58  1  0  0  0  0
 46 59  1  0  0  0  0
 46 60  1  0  0  0  0
 46 61  1  0  0  0  0
 47 62  1  0  0  0  0
 47 63  1  0  0  0  0
 47 64  1  0  0  0  0
 48 53  1  0  0  0  0
 48 54  1  0  0  0  0
 48 55  1  0  0  0  0
 49 50  2  0  0  0  0
 51 52  1  0  0  0  0
 65 66  1  0  0  0  0
 65 67  1  0  0  0  0
 65 68  2  0  0  0  0
 66 69  2  0  0  0  0
 66 71  1  0  0  0  0
 67 70  2  0  0  0  0
 67 72  1  0  0  0  0
 68 75  1  0  0  0  0
 68 76  1  0  0  0  0
 69 77  1  0  0  0  0
 69 79  1  0  0  0  0
 70 78  1  0  0  0  0
 70 80  1  0  0  0  0
 71 73  1  0  0  0  0
 71 83  2  0  0  0  0
 72 74  1  0  0  0  0
 72 84  2  0  0  0  0
 73 81  1  0  0  0  0
 73 85  2  0  0  0  0
 74 82  1  0  0  0  0
 74 86  2  0  0  0  0
 75 77  2  0  0  0  0
 75 91  1  0  0  0  0
 76 78  2  0  0  0  0
 76 92  1  0  0  0  0
 77 93  1  0  0  0  0
 78 94  1  0  0  0  0
 79 81  2  0  0  0  0
 79 95  1  0  0  0  0
 80 82  2  0  0  0  0
 80 96  1  0  0  0  0
 81 97  1  0  0  0  0
 82 98  1  0  0  0  0
 83 87  1  0  0  0  0
 83 99  1  0  0  0  0
 84 88  1  0  0  0  0
 84100  1  0  0  0  0
 85 89  1  0  0  0  0
 85101  1  0  0  0  0
 86 90  1  0  0  0  0
 86102  1  0  0  0  0
 87 89  2  0  0  0  0
 87103  1  0  0  0  0
 88 90  2  0  0  0  0
 88104  1  0  0  0  0
 89105  1  0  0  0  0
 90106  1  0  0  0  0
105113  2  0  0  0  0
105115  1  0  0  0  0
107113  1  0  0  0  0
107108  1  0  0  0  0
107109  1  0  0  0  0
107112  1  0  0  0  0
108115  1  0  0  0  0
108110  1  0  0  0  0
108111  1  0  0  0  0
109120  1  0  0  0  0
109121  1  0  0  0  0
109122  1  0  0  0  0
110123  1  0  0  0  0
110124  1  0  0  0  0
110125  1  0  0  0  0
111126  1  0  0  0  0
111127  1  0  0  0  0
111128  1  0  0  0  0
112117  1  0  0  0  0
112118  1  0  0  0  0
112119  1  0  0  0  0
113114  2  0  0  0  0
115116  1  0  0  0  0
M  CHG  1   1  -1
M  END
