energy: -130.265277522229 gnorm: 0.000259425472 xtb: 6.7.1 (edcfbbe)_energy: -130.265277522229 gnorm: 0.000259425472 xtb: 6.7.1 (edcfbbe)
 OpenBabel03032514553D

156164  0  0  0  0  0  0  0  0999 V2000
    0.8287    3.2266   -3.3852 C   0  0  0  0  0  0  0  0  0  0  0  0
    2.7601   -3.1219   -0.2709 C   0  0  0  0  0  0  0  0  0  0  0  0
   -3.3960    0.6013   -2.3373 C   0  0  0  0  0  0  0  0  0  0  0  0
   -2.3651   -0.0511   -1.6853 C   0  0  0  0  0  0  0  0  0  0  0  0
   -1.0424    0.4585   -1.7690 C   0  0  0  0  0  0  0  0  0  0  0  0
   -0.7593    1.5100   -2.6705 C   0  0  0  0  0  0  0  0  0  0  0  0
   -1.8138    2.1441   -3.3233 C   0  0  0  0  0  0  0  0  0  0  0  0
   -3.1058    1.7123   -3.1140 C   0  0  0  0  0  0  0  0  0  0  0  0
    0.0400   -0.1019   -1.0266 C   0  0  1  0  0  0  0  0  0  0  0  0
    1.3369    0.0219   -1.5929 C   0  0  0  0  0  0  0  0  0  0  0  0
    1.5883    1.0352   -2.5458 C   0  0  0  0  0  0  0  0  0  0  0  0
    0.5563    1.8957   -2.8803 N   0  0  0  0  0  0  0  0  0  0  0  0
   -0.0509   -0.7628    0.2355 C   0  0  0  0  0  0  0  0  0  0  0  0
    0.9597   -1.6915    0.5764 C   0  0  0  0  0  0  0  0  0  0  0  0
    2.0363   -1.8672   -0.2819 N   0  0  0  0  0  0  0  0  0  0  0  0
    2.3574   -0.8703   -1.1903 C   0  0  0  0  0  0  0  0  0  0  0  0
    3.6338   -0.7115   -1.7166 C   0  0  0  0  0  0  0  0  0  0  0  0
    3.8523    0.2635   -2.6744 C   0  0  0  0  0  0  0  0  0  0  0  0
    2.8598    1.1219   -3.1029 C   0  0  0  0  0  0  0  0  0  0  0  0
   -1.0638   -0.4594    1.1815 C   0  0  0  0  0  0  0  0  0  0  0  0
   -1.1609   -1.2062    2.3422 C   0  0  0  0  0  0  0  0  0  0  0  0
   -0.2243   -2.1912    2.5969 C   0  0  0  0  0  0  0  0  0  0  0  0
    0.8551   -2.4120    1.7627 C   0  0  0  0  0  0  0  0  0  0  0  0
   -1.8608    0.6067    0.8950 O   0  0  0  0  0  0  0  0  0  0  0  0
   -2.5177   -1.2135   -0.9904 O   0  0  0  0  0  0  0  0  0  0  0  0
   -4.4906    2.6183   -3.8704 S   0  0  2  0  0  0  0  0  0  0  0  0
   -0.3945   -3.2424    4.0718 S   0  0  1  0  0  0  0  0  0  0  0  0
    5.5278    0.3980   -3.3795 S   0  0  2  0  0  0  0  0  0  0  0  0
    5.4256    1.4935   -4.3262 O   0  0  0  0  0  0  0  0  0  0  0  0
    5.4812   -1.0412   -4.2471 O   0  0  0  0  0  0  0  0  0  0  0  0
    4.6655   -1.0453   -5.3883 C   0  0  0  0  0  0  0  0  0  0  0  0
   -3.8469    3.6725   -4.6334 O   0  0  0  0  0  0  0  0  0  0  0  0
   -5.0571    3.2943   -2.4368 O   0  0  0  0  0  0  0  0  0  0  0  0
   -4.2426    4.2798   -1.8613 C   0  0  0  0  0  0  0  0  0  0  0  0
   -1.6261   -2.7865    4.6909 O   0  0  0  0  0  0  0  0  0  0  0  0
   -0.7320   -4.6610    3.2292 O   0  0  0  0  0  0  0  0  0  0  0  0
   -1.9712   -4.7013    2.5750 C   0  0  0  0  0  0  0  0  0  0  0  0
   -4.4214    0.2798   -2.2564 H   0  0  0  0  0  0  0  0  0  0  0  0
   -1.6729    2.9711   -3.9986 H   0  0  0  0  0  0  0  0  0  0  0  0
   -1.9408   -1.0548    3.0712 H   0  0  0  0  0  0  0  0  0  0  0  0
    1.5855   -3.1482    2.0525 H   0  0  0  0  0  0  0  0  0  0  0  0
    4.4652   -1.3247   -1.4090 H   0  0  0  0  0  0  0  0  0  0  0  0
    3.1186    1.8306   -3.8731 H   0  0  0  0  0  0  0  0  0  0  0  0
    1.8488   -4.2981   -0.6415 C   0  0  0  0  0  0  0  0  0  0  0  0
    2.6322   -5.6035   -0.6755 C   0  0  0  0  0  0  0  0  0  0  0  0
    0.3886    4.3010   -2.3838 C   0  0  0  0  0  0  0  0  0  0  0  0
    0.6417    5.6967   -2.9372 C   0  0  0  0  0  0  0  0  0  0  0  0
   -2.8734    0.9466    1.8088 C   0  0  0  0  0  0  0  0  0  0  0  0
   -3.8108   -1.7445   -0.8521 C   0  0  0  0  0  0  0  0  0  0  0  0
   -4.8797    4.9237   -1.2561 H   0  0  0  0  0  0  0  0  0  0  0  0
   -3.7666    4.8762   -2.6473 H   0  0  0  0  0  0  0  0  0  0  0  0
   -3.4693    3.8252   -1.2322 H   0  0  0  0  0  0  0  0  0  0  0  0
   -2.2445   -5.7482    2.4495 H   0  0  0  0  0  0  0  0  0  0  0  0
   -1.9089   -4.2131    1.5958 H   0  0  0  0  0  0  0  0  0  0  0  0
   -2.7306   -4.1974    3.1828 H   0  0  0  0  0  0  0  0  0  0  0  0
    5.0607   -1.7932   -6.0743 H   0  0  0  0  0  0  0  0  0  0  0  0
    4.6913   -0.0614   -5.8686 H   0  0  0  0  0  0  0  0  0  0  0  0
    3.6313   -1.2917   -5.1247 H   0  0  0  0  0  0  0  0  0  0  0  0
    3.2231   -3.2934    0.7066 H   0  0  0  0  0  0  0  0  0  0  0  0
    3.5568   -3.0682   -1.0112 H   0  0  0  0  0  0  0  0  0  0  0  0
    1.4097   -4.1022   -1.6222 H   0  0  0  0  0  0  0  0  0  0  0  0
    1.0329   -4.3794    0.0772 H   0  0  0  0  0  0  0  0  0  0  0  0
    3.4390   -5.5501   -1.4033 H   0  0  0  0  0  0  0  0  0  0  0  0
    1.9797   -6.4290   -0.9472 H   0  0  0  0  0  0  0  0  0  0  0  0
    3.0632   -5.8159    0.3002 H   0  0  0  0  0  0  0  0  0  0  0  0
   -3.3890    1.8010    1.3716 H   0  0  0  0  0  0  0  0  0  0  0  0
   -2.4588    1.2313    2.7813 H   0  0  0  0  0  0  0  0  0  0  0  0
   -3.5859    0.1274    1.9487 H   0  0  0  0  0  0  0  0  0  0  0  0
   -3.6990   -2.6357   -0.2352 H   0  0  0  0  0  0  0  0  0  0  0  0
   -4.2361   -2.0276   -1.8210 H   0  0  0  0  0  0  0  0  0  0  0  0
   -4.4867   -1.0427   -0.3531 H   0  0  0  0  0  0  0  0  0  0  0  0
    0.3459    6.4511   -2.2128 H   0  0  0  0  0  0  0  0  0  0  0  0
    0.0694    5.8543   -3.8485 H   0  0  0  0  0  0  0  0  0  0  0  0
    1.6962    5.8344   -3.1654 H   0  0  0  0  0  0  0  0  0  0  0  0
    0.9444    4.1613   -1.4539 H   0  0  0  0  0  0  0  0  0  0  0  0
   -0.6720    4.1836   -2.1575 H   0  0  0  0  0  0  0  0  0  0  0  0
    0.3301    3.3786   -4.3472 H   0  0  0  0  0  0  0  0  0  0  0  0
    1.8993    3.3313   -3.5470 H   0  0  0  0  0  0  0  0  0  0  0  0
    0.8287    3.2266    6.6148 C   0  0  0  0  0  0  0  0  0  0  0  0
    2.7601   -3.1219    9.7291 C   0  0  0  0  0  0  0  0  0  0  0  0
   -3.3960    0.6013    7.6627 C   0  0  0  0  0  0  0  0  0  0  0  0
   -2.3651   -0.0511    8.3147 C   0  0  0  0  0  0  0  0  0  0  0  0
   -1.0424    0.4585    8.2310 C   0  0  0  0  0  0  0  0  0  0  0  0
   -0.7593    1.5100    7.3295 C   0  0  0  0  0  0  0  0  0  0  0  0
   -1.8138    2.1441    6.6767 C   0  0  0  0  0  0  0  0  0  0  0  0
   -3.1058    1.7123    6.8860 C   0  0  0  0  0  0  0  0  0  0  0  0
    0.0400   -0.1019    8.9734 C   0  0  1  0  0  0  0  0  0  0  0  0
    1.3369    0.0219    8.4071 C   0  0  0  0  0  0  0  0  0  0  0  0
    1.5883    1.0352    7.4542 C   0  0  0  0  0  0  0  0  0  0  0  0
    0.5563    1.8957    7.1197 N   0  0  0  0  0  0  0  0  0  0  0  0
   -0.0509   -0.7628   10.2355 C   0  0  0  0  0  0  0  0  0  0  0  0
    0.9597   -1.6915   10.5764 C   0  0  0  0  0  0  0  0  0  0  0  0
    2.0363   -1.8672    9.7181 N   0  0  0  0  0  0  0  0  0  0  0  0
    2.3574   -0.8703    8.8097 C   0  0  0  0  0  0  0  0  0  0  0  0
    3.6338   -0.7115    8.2834 C   0  0  0  0  0  0  0  0  0  0  0  0
    3.8523    0.2635    7.3256 C   0  0  0  0  0  0  0  0  0  0  0  0
    2.8598    1.1219    6.8971 C   0  0  0  0  0  0  0  0  0  0  0  0
   -1.0638   -0.4594   11.1815 C   0  0  0  0  0  0  0  0  0  0  0  0
   -1.1609   -1.2062   12.3422 C   0  0  0  0  0  0  0  0  0  0  0  0
   -0.2243   -2.1912   12.5969 C   0  0  0  0  0  0  0  0  0  0  0  0
    0.8551   -2.4120   11.7627 C   0  0  0  0  0  0  0  0  0  0  0  0
   -1.8608    0.6067   10.8950 O   0  0  0  0  0  0  0  0  0  0  0  0
   -2.5177   -1.2135    9.0096 O   0  0  0  0  0  0  0  0  0  0  0  0
   -4.4906    2.6183    6.1296 S   0  0  2  0  0  0  0  0  0  0  0  0
   -0.3945   -3.2424   14.0718 S   0  0  1  0  0  0  0  0  0  0  0  0
    5.5278    0.3980    6.6205 S   0  0  2  0  0  0  0  0  0  0  0  0
    5.4256    1.4935    5.6738 O   0  0  0  0  0  0  0  0  0  0  0  0
    5.4812   -1.0412    5.7529 O   0  0  0  0  0  0  0  0  0  0  0  0
    4.6655   -1.0453    4.6117 C   0  0  0  0  0  0  0  0  0  0  0  0
   -3.8469    3.6725    5.3666 O   0  0  0  0  0  0  0  0  0  0  0  0
   -5.0571    3.2943    7.5632 O   0  0  0  0  0  0  0  0  0  0  0  0
   -4.2426    4.2798    8.1387 C   0  0  0  0  0  0  0  0  0  0  0  0
   -1.6261   -2.7865   14.6909 O   0  0  0  0  0  0  0  0  0  0  0  0
   -0.7320   -4.6610   13.2292 O   0  0  0  0  0  0  0  0  0  0  0  0
   -1.9712   -4.7013   12.5750 C   0  0  0  0  0  0  0  0  0  0  0  0
   -4.4214    0.2798    7.7436 H   0  0  0  0  0  0  0  0  0  0  0  0
   -1.6729    2.9711    6.0014 H   0  0  0  0  0  0  0  0  0  0  0  0
   -1.9408   -1.0548   13.0712 H   0  0  0  0  0  0  0  0  0  0  0  0
    1.5855   -3.1482   12.0525 H   0  0  0  0  0  0  0  0  0  0  0  0
    4.4652   -1.3247    8.5910 H   0  0  0  0  0  0  0  0  0  0  0  0
    3.1186    1.8306    6.1269 H   0  0  0  0  0  0  0  0  0  0  0  0
    1.8488   -4.2981    9.3585 C   0  0  0  0  0  0  0  0  0  0  0  0
    2.6322   -5.6035    9.3245 C   0  0  0  0  0  0  0  0  0  0  0  0
    0.3886    4.3010    7.6162 C   0  0  0  0  0  0  0  0  0  0  0  0
    0.6417    5.6967    7.0628 C   0  0  0  0  0  0  0  0  0  0  0  0
   -2.8734    0.9466   11.8088 C   0  0  0  0  0  0  0  0  0  0  0  0
   -3.8108   -1.7445    9.1479 C   0  0  0  0  0  0  0  0  0  0  0  0
   -4.8797    4.9237    8.7439 H   0  0  0  0  0  0  0  0  0  0  0  0
   -3.7666    4.8762    7.3527 H   0  0  0  0  0  0  0  0  0  0  0  0
   -3.4693    3.8252    8.7678 H   0  0  0  0  0  0  0  0  0  0  0  0
   -2.2445   -5.7482   12.4495 H   0  0  0  0  0  0  0  0  0  0  0  0
   -1.9089   -4.2131   11.5958 H   0  0  0  0  0  0  0  0  0  0  0  0
   -2.7306   -4.1974   13.1828 H   0  0  0  0  0  0  0  0  0  0  0  0
    5.0607   -1.7932    3.9257 H   0  0  0  0  0  0  0  0  0  0  0  0
    4.6913   -0.0614    4.1314 H   0  0  0  0  0  0  0  0  0  0  0  0
    3.6313   -1.2917    4.8753 H   0  0  0  0  0  0  0  0  0  0  0  0
    3.2231   -3.2934   10.7066 H   0  0  0  0  0  0  0  0  0  0  0  0
    3.5568   -3.0682    8.9888 H   0  0  0  0  0  0  0  0  0  0  0  0
    1.4097   -4.1022    8.3778 H   0  0  0  0  0  0  0  0  0  0  0  0
    1.0329   -4.3794   10.0772 H   0  0  0  0  0  0  0  0  0  0  0  0
    3.4390   -5.5501    8.5967 H   0  0  0  0  0  0  0  0  0  0  0  0
    1.9797   -6.4290    9.0528 H   0  0  0  0  0  0  0  0  0  0  0  0
    3.0632   -5.8159   10.3002 H   0  0  0  0  0  0  0  0  0  0  0  0
   -3.3890    1.8010   11.3716 H   0  0  0  0  0  0  0  0  0  0  0  0
   -2.4588    1.2313   12.7813 H   0  0  0  0  0  0  0  0  0  0  0  0
   -3.5859    0.1274   11.9487 H   0  0  0  0  0  0  0  0  0  0  0  0
   -3.6990   -2.6357    9.7648 H   0  0  0  0  0  0  0  0  0  0  0  0
   -4.2361   -2.0276    8.1790 H   0  0  0  0  0  0  0  0  0  0  0  0
   -4.4867   -1.0427    9.6469 H   0  0  0  0  0  0  0  0  0  0  0  0
    0.3459    6.4511    7.7872 H   0  0  0  0  0  0  0  0  0  0  0  0
    0.0694    5.8543    6.1515 H   0  0  0  0  0  0  0  0  0  0  0  0
    1.6962    5.8344    6.8346 H   0  0  0  0  0  0  0  0  0  0  0  0
    0.9444    4.1613    8.5461 H   0  0  0  0  0  0  0  0  0  0  0  0
   -0.6720    4.1836    7.8425 H   0  0  0  0  0  0  0  0  0  0  0  0
    0.3301    3.3786    5.6528 H   0  0  0  0  0  0  0  0  0  0  0  0
    1.8993    3.3313    6.4530 H   0  0  0  0  0  0  0  0  0  0  0  0
  1 46  1  0  0  0  0
  1 77  1  0  0  0  0
  1 78  1  0  0  0  0
  2 44  1  0  0  0  0
  2 59  1  0  0  0  0
  2 60  1  0  0  0  0
  3  4  2  0  0  0  0
  3 38  1  0  0  0  0
  4  5  1  0  0  0  0
  4 25  1  0  0  0  0
  5  6  2  0  0  0  0
  6  7  1  0  0  0  0
  7  8  2  0  0  0  0
  7 39  1  0  0  0  0
  8  3  1  0  0  0  0
  8 26  1  0  0  0  0
  9  5  1  1  0  0  0
  9 10  1  0  0  0  0
 10 11  2  0  0  0  0
 11 12  1  0  0  0  0
 12  1  1  0  0  0  0
 12  6  1  0  0  0  0
 13 14  2  0  0  0  0
 13 20  1  0  0  0  0
 13  9  1  0  0  0  0
 14 15  1  0  0  0  0
 15  2  1  0  0  0  0
 15 16  1  0  0  0  0
 16 10  1  0  0  0  0
 16 17  2  0  0  0  0
 17 18  1  0  0  0  0
 17 42  1  0  0  0  0
 18 19  2  0  0  0  0
 18 28  1  0  0  0  0
 19 11  1  0  0  0  0
 19 43  1  0  0  0  0
 20 21  2  0  0  0  0
 21 22  1  0  0  0  0
 21 40  1  0  0  0  0
 22 23  2  0  0  0  0
 22 27  1  0  0  0  0
 23 14  1  0  0  0  0
 23 41  1  0  0  0  0
 24 48  1  0  0  0  0
 24 20  1  0  0  0  0
 25 49  1  0  0  0  0
 26 32  2  6  0  0  0
 26 33  1  0  0  0  0
 27 35  2  1  0  0  0
 27 36  1  0  0  0  0
 28 29  2  6  0  0  0
 28 30  1  0  0  0  0
 30 31  1  0  0  0  0
 31 56  1  0  0  0  0
 31 57  1  0  0  0  0
 31 58  1  0  0  0  0
 33 34  1  0  0  0  0
 34 50  1  0  0  0  0
 34 51  1  0  0  0  0
 34 52  1  0  0  0  0
 36 37  1  0  0  0  0
 37 53  1  0  0  0  0
 37 54  1  0  0  0  0
 37 55  1  0  0  0  0
 44 45  1  0  0  0  0
 44 61  1  0  0  0  0
 44 62  1  0  0  0  0
 45 63  1  0  0  0  0
 45 64  1  0  0  0  0
 45 65  1  0  0  0  0
 46 47  1  0  0  0  0
 46 75  1  0  0  0  0
 46 76  1  0  0  0  0
 47 72  1  0  0  0  0
 47 73  1  0  0  0  0
 47 74  1  0  0  0  0
 48 66  1  0  0  0  0
 48 67  1  0  0  0  0
 48 68  1  0  0  0  0
 49 69  1  0  0  0  0
 49 70  1  0  0  0  0
 49 71  1  0  0  0  0
 79124  1  0  0  0  0
 79155  1  0  0  0  0
 79156  1  0  0  0  0
 80122  1  0  0  0  0
 80137  1  0  0  0  0
 80138  1  0  0  0  0
 81 82  2  0  0  0  0
 81116  1  0  0  0  0
 82 83  1  0  0  0  0
 82103  1  0  0  0  0
 83 84  2  0  0  0  0
 84 85  1  0  0  0  0
 85 86  2  0  0  0  0
 85117  1  0  0  0  0
 86 81  1  0  0  0  0
 86104  1  0  0  0  0
 87 83  1  1  0  0  0
 87 88  1  0  0  0  0
 88 89  2  0  0  0  0
 89 90  1  0  0  0  0
 90 79  1  0  0  0  0
 90 84  1  0  0  0  0
 91 92  2  0  0  0  0
 91 98  1  0  0  0  0
 91 87  1  0  0  0  0
 92 93  1  0  0  0  0
 93 80  1  0  0  0  0
 93 94  1  0  0  0  0
 94 88  1  0  0  0  0
 94 95  2  0  0  0  0
 95 96  1  0  0  0  0
 95120  1  0  0  0  0
 96 97  2  0  0  0  0
 96106  1  0  0  0  0
 97 89  1  0  0  0  0
 97121  1  0  0  0  0
 98 99  2  0  0  0  0
 99100  1  0  0  0  0
 99118  1  0  0  0  0
100101  2  0  0  0  0
100105  1  0  0  0  0
101 92  1  0  0  0  0
101119  1  0  0  0  0
102126  1  0  0  0  0
102 98  1  0  0  0  0
103127  1  0  0  0  0
104110  2  6  0  0  0
104111  1  0  0  0  0
105113  2  1  0  0  0
105114  1  0  0  0  0
106107  2  6  0  0  0
106108  1  0  0  0  0
108109  1  0  0  0  0
109134  1  0  0  0  0
109135  1  0  0  0  0
109136  1  0  0  0  0
111112  1  0  0  0  0
112128  1  0  0  0  0
112129  1  0  0  0  0
112130  1  0  0  0  0
114115  1  0  0  0  0
115131  1  0  0  0  0
115132  1  0  0  0  0
115133  1  0  0  0  0
122123  1  0  0  0  0
122139  1  0  0  0  0
122140  1  0  0  0  0
123141  1  0  0  0  0
123142  1  0  0  0  0
123143  1  0  0  0  0
124125  1  0  0  0  0
124153  1  0  0  0  0
124154  1  0  0  0  0
125150  1  0  0  0  0
125151  1  0  0  0  0
125152  1  0  0  0  0
126144  1  0  0  0  0
126145  1  0  0  0  0
126146  1  0  0  0  0
127147  1  0  0  0  0
127148  1  0  0  0  0
127149  1  0  0  0  0
M  END
