 energy: -41.807496146169 gnorm: 0.000862773492 xtb: 6.7.1 (edcfbbe)
          03062514493D

218240  0     0  0            999 V2000
    1.2342    2.5331    2.4418 C   0  0  0  0  0  0  0  0  0  0  0  0
    1.3754    1.1996    2.1008 C   0  0  0  0  0  0  0  0  0  0  0  0
    2.6442    0.6269    1.8635 C   0  0  0  0  0  0  0  0  0  0  0  0
    3.7366    1.5307    1.7465 C   0  0  0  0  0  0  0  0  0  0  0  0
    3.5531    2.8814    2.1218 C   0  0  0  0  0  0  0  0  0  0  0  0
    2.3294    3.3669    2.4953 C   0  0  0  0  0  0  0  0  0  0  0  0
    2.8383   -0.7892    1.6873 C   0  0  0  0  0  0  0  0  0  0  0  0
    4.0952   -1.1152    1.1412 C   0  0  0  0  0  0  0  0  0  0  0  0
    5.0603   -0.1003    0.8549 C   0  0  0  0  0  0  0  0  0  0  0  0
    4.9255    1.1796    1.2303 N   0  0  0  0  0  0  0  0  0  0  0  0
    2.0326   -1.8919    2.1777 C   0  0  0  0  0  0  0  0  0  0  0  0
    2.7320   -3.1576    2.2406 C   0  0  0  0  0  0  0  0  0  0  0  0
    3.7513   -3.4925    1.4185 N   0  0  0  0  0  0  0  0  0  0  0  0
    4.4437   -2.4735    0.8962 C   0  0  0  0  0  0  0  0  0  0  0  0
    5.6454   -2.7602    0.2294 C   0  0  0  0  0  0  0  0  0  0  0  0
    6.5275   -1.7692   -0.1225 C   0  0  0  0  0  0  0  0  0  0  0  0
    6.2509   -0.4648    0.2082 C   0  0  0  0  0  0  0  0  0  0  0  0
    0.7376   -1.8812    2.9216 C   0  0  0  0  0  0  0  0  0  0  0  0
    0.7091   -2.6802    4.0953 C   0  0  0  0  0  0  0  0  0  0  0  0
    1.5090   -3.7774    4.2412 C   0  0  0  0  0  0  0  0  0  0  0  0
    2.4536   -4.0618    3.2894 C   0  0  0  0  0  0  0  0  0  0  0  0
    0.2797    0.4347    1.9036 O   0  0  0  0  0  0  0  0  0  0  0  0
   -3.9255   -0.7344    2.9898 C   0  0  0  0  0  0  0  0  0  0  0  0
   -3.3345    0.0065    1.9774 C   0  0  0  0  0  0  0  0  0  0  0  0
   -4.0900    0.3198    0.8050 C   0  0  0  0  0  0  0  0  0  0  0  0
   -5.4624   -0.0776    0.8039 C   0  0  0  0  0  0  0  0  0  0  0  0
   -5.9308   -0.9826    1.7856 C   0  0  0  0  0  0  0  0  0  0  0  0
   -5.1557   -1.3248    2.8549 C   0  0  0  0  0  0  0  0  0  0  0  0
   -3.6274    1.1722   -0.2668 C   0  0  0  0  0  0  0  0  0  0  0  0
   -4.6408    1.8399   -0.9760 C   0  0  0  0  0  0  0  0  0  0  0  0
   -5.9994    1.4460   -0.8218 C   0  0  0  0  0  0  0  0  0  0  0  0
   -6.3816    0.4206   -0.0458 N   0  0  0  0  0  0  0  0  0  0  0  0
   -2.2882    1.4810   -0.6632 C   0  0  0  0  0  0  0  0  0  0  0  0
   -2.0738    2.6335   -1.4850 C   0  0  0  0  0  0  0  0  0  0  0  0
   -3.0664    3.3526   -2.0399 N   0  0  0  0  0  0  0  0  0  0  0  0
   -4.3200    2.9285   -1.8327 C   0  0  0  0  0  0  0  0  0  0  0  0
   -5.3647    3.6007   -2.4836 C   0  0  0  0  0  0  0  0  0  0  0  0
   -6.6722    3.2047   -2.3478 C   0  0  0  0  0  0  0  0  0  0  0  0
   -6.9840    2.1429   -1.5345 C   0  0  0  0  0  0  0  0  0  0  0  0
   -1.1386    0.6473   -0.3963 C   0  0  0  0  0  0  0  0  0  0  0  0
    0.1313    1.1091   -0.7796 C   0  0  0  0  0  0  0  0  0  0  0  0
    0.3292    2.2849   -1.4370 C   0  0  0  0  0  0  0  0  0  0  0  0
   -0.7588    3.0384   -1.7960 C   0  0  0  0  0  0  0  0  0  0  0  0
   -2.0349    0.3644    2.2403 O   0  0  0  0  0  0  0  0  0  0  0  0
   -0.8975   -0.3977    1.6882 B   0  0  0  0  0  0  0  0  0  0  0  0
   -0.5316   -1.7151    2.3728 N   0  0  0  0  0  0  0  0  0  0  0  0
   -1.4936   -4.0411    2.6360 C   0  0  0  0  0  0  0  0  0  0  0  0
   -1.6739   -2.5295    2.7065 C   0  0  0  0  0  0  0  0  0  0  0  0
   -1.1869   -0.6073    0.1990 N   0  0  0  0  0  0  0  0  0  0  0  0
   -0.6883   -1.8765   -1.8563 C   0  0  0  0  0  0  0  0  0  0  0  0
   -0.5485   -1.7727   -0.3492 C   0  0  0  0  0  0  0  0  0  0  0  0
   -8.0452    4.1061   -3.2943 S   0  0  0  0  0  0  0  0  0  0  0  0
   -7.7838    3.0874   -4.4807 F   0  0  0  0  0  0  0  0  0  0  0  0
   -6.9350    5.0680   -3.8812 F   0  0  0  0  0  0  0  0  0  0  0  0
   -9.1908    4.8491   -4.0992 F   0  0  0  0  0  0  0  0  0  0  0  0
   -9.0781    3.0920   -2.6564 F   0  0  0  0  0  0  0  0  0  0  0  0
   -8.2163    5.0634   -2.0415 F   0  0  0  0  0  0  0  0  0  0  0  0
    2.1203    2.7667   -1.8256 S   0  0  0  0  0  0  0  0  0  0  0  0
    2.5893    1.4152   -1.1617 F   0  0  0  0  0  0  0  0  0  0  0  0
    2.1696    3.4452   -0.4039 F   0  0  0  0  0  0  0  0  0  0  0  0
    3.6093    3.1746   -2.1546 F   0  0  0  0  0  0  0  0  0  0  0  0
    1.5430    4.0875   -2.4651 F   0  0  0  0  0  0  0  0  0  0  0  0
    1.9312    2.0116   -3.1995 F   0  0  0  0  0  0  0  0  0  0  0  0
   -5.6146   -2.6234    4.1566 S   0  0  0  0  0  0  0  0  0  0  0  0
   -6.9264   -2.8598    3.3180 F   0  0  0  0  0  0  0  0  0  0  0  0
   -6.3135   -1.4818    4.9825 F   0  0  0  0  0  0  0  0  0  0  0  0
   -5.9973   -3.7540    5.1888 F   0  0  0  0  0  0  0  0  0  0  0  0
   -4.2684   -2.3119    4.9147 F   0  0  0  0  0  0  0  0  0  0  0  0
   -4.8138   -3.6256    3.2352 F   0  0  0  0  0  0  0  0  0  0  0  0
    1.1546   -4.8643    5.7453 S   0  0  0  0  0  0  0  0  0  0  0  0
    0.9698   -6.0541    4.7346 F   0  0  0  0  0  0  0  0  0  0  0  0
   -0.3572   -4.4993    5.5575 F   0  0  0  0  0  0  0  0  0  0  0  0
    0.8463   -5.7241    7.0121 F   0  0  0  0  0  0  0  0  0  0  0  0
    1.3192   -3.5634    6.5962 F   0  0  0  0  0  0  0  0  0  0  0  0
    2.6882   -5.1524    5.7906 F   0  0  0  0  0  0  0  0  0  0  0  0
    8.1295   -2.2087   -1.0362 S   0  0  0  0  0  0  0  0  0  0  0  0
    7.6793   -3.7248   -0.9883 F   0  0  0  0  0  0  0  0  0  0  0  0
    8.8448   -2.3770    0.3707 F   0  0  0  0  0  0  0  0  0  0  0  0
    9.4595   -2.5740   -1.8191 F   0  0  0  0  0  0  0  0  0  0  0  0
    7.3187   -2.0172   -2.3859 F   0  0  0  0  0  0  0  0  0  0  0  0
    8.4903   -0.6681   -1.0331 F   0  0  0  0  0  0  0  0  0  0  0  0
    2.0860    5.1537    3.0812 S   0  0  0  0  0  0  0  0  0  0  0  0
    3.6550    5.3166    3.0060 F   0  0  0  0  0  0  0  0  0  0  0  0
    1.8948    6.6285    3.6216 F   0  0  0  0  0  0  0  0  0  0  0  0
    0.5333    4.8896    3.1119 F   0  0  0  0  0  0  0  0  0  0  0  0
    1.9716    5.6200    1.5726 F   0  0  0  0  0  0  0  0  0  0  0  0
    2.1978    4.5701    4.5407 F   0  0  0  0  0  0  0  0  0  0  0  0
   -2.4478   -4.5589    2.7727 H   0  0  0  0  0  0  0  0  0  0  0  0
   -0.8297   -4.4159    3.4158 H   0  0  0  0  0  0  0  0  0  0  0  0
   -1.0796   -4.3527    1.6777 H   0  0  0  0  0  0  0  0  0  0  0  0
   -2.4761   -2.2413    2.0240 H   0  0  0  0  0  0  0  0  0  0  0  0
   -2.0059   -2.2493    3.7088 H   0  0  0  0  0  0  0  0  0  0  0  0
   -0.9868   -2.6497    0.1313 H   0  0  0  0  0  0  0  0  0  0  0  0
    0.5042   -1.7543   -0.0537 H   0  0  0  0  0  0  0  0  0  0  0  0
   -1.7388   -1.8797   -2.1492 H   0  0  0  0  0  0  0  0  0  0  0  0
   -0.2302   -2.7865   -2.2486 H   0  0  0  0  0  0  0  0  0  0  0  0
   -0.2162   -1.0310   -2.3582 H   0  0  0  0  0  0  0  0  0  0  0  0
   -6.9286   -1.3875    1.7048 H   0  0  0  0  0  0  0  0  0  0  0  0
   -8.0161    1.8434   -1.4263 H   0  0  0  0  0  0  0  0  0  0  0  0
   -5.1288    4.4504   -3.1081 H   0  0  0  0  0  0  0  0  0  0  0  0
    4.4024    3.5498    2.1017 H   0  0  0  0  0  0  0  0  0  0  0  0
    5.9110   -3.7924    0.0520 H   0  0  0  0  0  0  0  0  0  0  0  0
    6.9727    0.3055   -0.0246 H   0  0  0  0  0  0  0  0  0  0  0  0
    3.0895   -4.9258    3.4136 H   0  0  0  0  0  0  0  0  0  0  0  0
   -0.6057    3.9591   -2.3399 H   0  0  0  0  0  0  0  0  0  0  0  0
   -0.0925   -2.5487    4.8061 H   0  0  0  0  0  0  0  0  0  0  0  0
    0.2463    2.9232    2.6304 H   0  0  0  0  0  0  0  0  0  0  0  0
    0.9928    0.5261   -0.4986 H   0  0  0  0  0  0  0  0  0  0  0  0
   -3.3692   -0.8843    3.8996 H   0  0  0  0  0  0  0  0  0  0  0  0
    2.2822    0.8133   11.9485 C   0  0  0  0  0  0  0  0  0  0  0  0
    1.9620   -0.1586   11.0028 C   0  0  0  0  0  0  0  0  0  0  0  0
    3.0062   -0.7533   10.2363 C   0  0  0  0  0  0  0  0  0  0  0  0
    4.2574   -0.0611   10.1916 C   0  0  0  0  0  0  0  0  0  0  0  0
    4.5171    0.9286   11.1604 C   0  0  0  0  0  0  0  0  0  0  0  0
    3.5596    1.3305   12.0489 C   0  0  0  0  0  0  0  0  0  0  0  0
    2.9050   -2.0076    9.5436 C   0  0  0  0  0  0  0  0  0  0  0  0
    3.9585   -2.2577    8.6523 C   0  0  0  0  0  0  0  0  0  0  0  0
    4.8976   -1.2269    8.3429 C   0  0  0  0  0  0  0  0  0  0  0  0
    5.1433   -0.2132    9.1865 N   0  0  0  0  0  0  0  0  0  0  0  0
    1.9268   -3.0526    9.6541 C   0  0  0  0  0  0  0  0  0  0  0  0
    2.3512   -4.3611    9.2286 C   0  0  0  0  0  0  0  0  0  0  0  0
    3.3263   -4.5658    8.3213 N   0  0  0  0  0  0  0  0  0  0  0  0
    3.9765   -3.4672    7.9023 C   0  0  0  0  0  0  0  0  0  0  0  0
    4.6352   -3.4514    6.6625 C   0  0  0  0  0  0  0  0  0  0  0  0
    5.3007   -2.3279    6.2259 C   0  0  0  0  0  0  0  0  0  0  0  0
    5.5214   -1.2735    7.0868 C   0  0  0  0  0  0  0  0  0  0  0  0
    0.5175   -2.9383   10.0642 C   0  0  0  0  0  0  0  0  0  0  0  0
   -0.0525   -4.1144   10.6293 C   0  0  0  0  0  0  0  0  0  0  0  0
    0.4840   -5.3600   10.4100 C   0  0  0  0  0  0  0  0  0  0  0  0
    1.6311   -5.4858    9.6665 C   0  0  0  0  0  0  0  0  0  0  0  0
    0.6421   -0.4105   10.7625 O   0  0  0  0  0  0  0  0  0  0  0  0
   -3.4762   -0.5149    9.3884 C   0  0  0  0  0  0  0  0  0  0  0  0
   -2.4434    0.2418    8.8348 C   0  0  0  0  0  0  0  0  0  0  0  0
   -2.5683    0.7444    7.4967 C   0  0  0  0  0  0  0  0  0  0  0  0
   -3.7384    0.3485    6.7788 C   0  0  0  0  0  0  0  0  0  0  0  0
   -4.6329   -0.5903    7.3358 C   0  0  0  0  0  0  0  0  0  0  0  0
   -4.5074   -1.0082    8.6240 C   0  0  0  0  0  0  0  0  0  0  0  0
   -1.6852    1.7066    6.8733 C   0  0  0  0  0  0  0  0  0  0  0  0
   -2.2064    2.3446    5.7289 C   0  0  0  0  0  0  0  0  0  0  0  0
   -3.3952    1.8720    5.1119 C   0  0  0  0  0  0  0  0  0  0  0  0
   -4.0936    0.8327    5.5760 N   0  0  0  0  0  0  0  0  0  0  0  0
   -0.3813    2.1434    7.2824 C   0  0  0  0  0  0  0  0  0  0  0  0
    0.1381    3.3375    6.6862 C   0  0  0  0  0  0  0  0  0  0  0  0
   -0.4468    4.0031    5.6775 N   0  0  0  0  0  0  0  0  0  0  0  0
   -1.5534    3.4701    5.1572 C   0  0  0  0  0  0  0  0  0  0  0  0
   -2.0715    4.0567    3.9926 C   0  0  0  0  0  0  0  0  0  0  0  0
   -3.1968    3.5623    3.3872 C   0  0  0  0  0  0  0  0  0  0  0  0
   -3.8543    2.4979    3.9463 C   0  0  0  0  0  0  0  0  0  0  0  0
    0.5292    1.3863    8.1302 C   0  0  0  0  0  0  0  0  0  0  0  0
    1.7610    1.9889    8.4830 C   0  0  0  0  0  0  0  0  0  0  0  0
    2.2024    3.1615    7.9373 C   0  0  0  0  0  0  0  0  0  0  0  0
    1.4028    3.8277    7.0531 C   0  0  0  0  0  0  0  0  0  0  0  0
   -1.3316    0.3189    9.6402 O   0  0  0  0  0  0  0  0  0  0  0  0
   -0.1324   -0.5651    9.5002 B   0  0  0  0  0  0  0  0  0  0  0  0
   -0.3642   -2.0884    9.3990 N   0  0  0  0  0  0  0  0  0  0  0  0
   -1.4309   -3.8745    8.0045 C   0  0  0  0  0  0  0  0  0  0  0  0
   -1.5627   -2.5587    8.7563 C   0  0  0  0  0  0  0  0  0  0  0  0
    0.4928   -0.0123    8.2034 N   0  0  0  0  0  0  0  0  0  0  0  0
    1.4649   -0.2794    5.9485 C   0  0  0  0  0  0  0  0  0  0  0  0
    1.3011   -0.8353    7.3500 C   0  0  0  0  0  0  0  0  0  0  0  0
   -3.8308    4.3041    1.7631 S   0  0  0  0  0  0  0  0  0  0  0  0
   -2.8919    5.5438    2.0227 F   0  0  0  0  0  0  0  0  0  0  0  0
   -4.9807    5.0030    2.5876 F   0  0  0  0  0  0  0  0  0  0  0  0
   -4.3398    4.8765    0.3888 F   0  0  0  0  0  0  0  0  0  0  0  0
   -2.6295    3.5531    1.0814 F   0  0  0  0  0  0  0  0  0  0  0  0
   -4.7296    3.0251    1.6088 F   0  0  0  0  0  0  0  0  0  0  0  0
    3.9513    3.7778    8.3199 S   0  0  0  0  0  0  0  0  0  0  0  0
    3.9454    2.8027    9.5468 F   0  0  0  0  0  0  0  0  0  0  0  0
    3.3036    4.9172    9.2056 F   0  0  0  0  0  0  0  0  0  0  0  0
    5.4254    4.2527    8.6279 F   0  0  0  0  0  0  0  0  0  0  0  0
    3.8432    4.7200    7.0592 F   0  0  0  0  0  0  0  0  0  0  0  0
    4.4455    2.5900    7.4004 F   0  0  0  0  0  0  0  0  0  0  0  0
   -5.6171   -2.3377    9.3831 S   0  0  0  0  0  0  0  0  0  0  0  0
   -6.8233   -1.3209    9.3028 F   0  0  0  0  0  0  0  0  0  0  0  0
   -5.2358   -1.7778   10.8098 F   0  0  0  0  0  0  0  0  0  0  0  0
   -6.5039   -3.4867   10.0053 F   0  0  0  0  0  0  0  0  0  0  0  0
   -4.2982   -3.2089    9.3952 F   0  0  0  0  0  0  0  0  0  0  0  0
   -5.9279   -2.8126    7.9094 F   0  0  0  0  0  0  0  0  0  0  0  0
   -0.4484   -6.8933   11.0132 S   0  0  0  0  0  0  0  0  0  0  0  0
   -1.4132   -6.6369    9.7869 F   0  0  0  0  0  0  0  0  0  0  0  0
   -1.3426   -5.9377   11.8985 F   0  0  0  0  0  0  0  0  0  0  0  0
   -1.2457   -8.1728   11.4894 F   0  0  0  0  0  0  0  0  0  0  0  0
    0.5993   -7.0030   12.1924 F   0  0  0  0  0  0  0  0  0  0  0  0
    0.5041   -7.7617   10.0996 F   0  0  0  0  0  0  0  0  0  0  0  0
    5.8418   -2.2031    4.4113 S   0  0  0  0  0  0  0  0  0  0  0  0
    5.1735   -3.6039    4.1661 F   0  0  0  0  0  0  0  0  0  0  0  0
    7.1867   -2.9105    4.8285 F   0  0  0  0  0  0  0  0  0  0  0  0
    6.2672   -2.0721    2.9099 F   0  0  0  0  0  0  0  0  0  0  0  0
    4.4456   -1.5206    4.1545 F   0  0  0  0  0  0  0  0  0  0  0  0
    6.4580   -0.7972    4.7582 F   0  0  0  0  0  0  0  0  0  0  0  0
    3.9616    2.6351   13.3627 S   0  0  0  0  0  0  0  0  0  0  0  0
    4.5298    1.4524   14.2507 F   0  0  0  0  0  0  0  0  0  0  0  0
    4.3019    3.7155   14.4700 F   0  0  0  0  0  0  0  0  0  0  0  0
    3.3550    3.7309   12.3909 F   0  0  0  0  0  0  0  0  0  0  0  0
    5.3828    2.8025   12.6899 F   0  0  0  0  0  0  0  0  0  0  0  0
    2.5208    2.3951   13.9664 F   0  0  0  0  0  0  0  0  0  0  0  0
   -2.2914   -4.0669    7.3573 H   0  0  0  0  0  0  0  0  0  0  0  0
   -1.3535   -4.7342    8.6725 H   0  0  0  0  0  0  0  0  0  0  0  0
   -0.5372   -3.8661    7.3814 H   0  0  0  0  0  0  0  0  0  0  0  0
   -1.8712   -1.7818    8.0544 H   0  0  0  0  0  0  0  0  0  0  0  0
   -2.3501   -2.6441    9.5110 H   0  0  0  0  0  0  0  0  0  0  0  0
    0.8831   -1.8446    7.3368 H   0  0  0  0  0  0  0  0  0  0  0  0
    2.2812   -0.9034    7.8176 H   0  0  0  0  0  0  0  0  0  0  0  0
    0.5021   -0.1934    5.4447 H   0  0  0  0  0  0  0  0  0  0  0  0
    2.1192   -0.9056    5.3381 H   0  0  0  0  0  0  0  0  0  0  0  0
    1.9077    0.7171    5.9706 H   0  0  0  0  0  0  0  0  0  0  0  0
   -5.4191   -0.9976    6.7142 H   0  0  0  0  0  0  0  0  0  0  0  0
   -4.7397    2.1159    3.4636 H   0  0  0  0  0  0  0  0  0  0  0  0
   -1.5513    4.8974    3.5536 H   0  0  0  0  0  0  0  0  0  0  0  0
    5.4708    1.4378   11.1430 H   0  0  0  0  0  0  0  0  0  0  0  0
    4.4996   -4.2891    5.9943 H   0  0  0  0  0  0  0  0  0  0  0  0
    6.1036   -0.4250    6.7582 H   0  0  0  0  0  0  0  0  0  0  0  0
    1.9553   -6.4679    9.3530 H   0  0  0  0  0  0  0  0  0  0  0  0
    1.7920    4.6972    6.5397 H   0  0  0  0  0  0  0  0  0  0  0  0
   -1.0122   -4.0547   11.1227 H   0  0  0  0  0  0  0  0  0  0  0  0
    1.4974    1.2043   12.5792 H   0  0  0  0  0  0  0  0  0  0  0  0
    2.4340    1.4509    9.1277 H   0  0  0  0  0  0  0  0  0  0  0  0
   -3.3881   -0.8260   10.4188 H   0  0  0  0  0  0  0  0  0  0  0  0
  1  2  2  0  0  0  0
  1107  1  0  0  0  0
  2  3  1  0  0  0  0
  3  4  2  0  0  0  0
  3  7  1  0  0  0  0
  4  5  1  0  0  0  0
  5  6  2  0  0  0  0
  5101  1  0  0  0  0
  6  1  1  0  0  0  0
  6 82  1  0  0  0  0
  7  8  1  0  0  0  0
  7 11  2  0  0  0  0
  8  9  1  0  0  0  0
  9 10  2  0  0  0  0
 10  4  1  0  0  0  0
 11 12  1  0  0  0  0
 11 18  1  0  0  0  0
 12 13  2  0  0  0  0
 13 14  1  0  0  0  0
 14  8  1  0  0  0  0
 14 15  2  0  0  0  0
 15 16  1  0  0  0  0
 15102  1  0  0  0  0
 16 76  1  0  0  0  0
 16 17  2  0  0  0  0
 17  9  1  0  0  0  0
 17103  1  0  0  0  0
 18 46  1  0  0  0  0
 18 19  2  0  0  0  0
 19 20  1  0  0  0  0
 19106  1  0  0  0  0
 20 70  1  0  0  0  0
 20 21  2  0  0  0  0
 21 12  1  0  0  0  0
 21104  1  0  0  0  0
 22  2  1  0  0  0  0
 23 24  2  0  0  0  0
 23109  1  0  0  0  0
 24 25  1  0  0  0  0
 24 44  1  0  0  0  0
 25 26  2  0  0  0  0
 25 29  1  0  0  0  0
 26 27  1  0  0  0  0
 27 28  2  0  0  0  0
 27 98  1  0  0  0  0
 28 64  1  0  0  0  0
 28 23  1  0  0  0  0
 29 33  2  0  0  0  0
 30 29  1  0  0  0  0
 30 31  1  0  0  0  0
 31 32  2  0  0  0  0
 32 26  1  0  0  0  0
 33 34  1  0  0  0  0
 33 40  1  0  0  0  0
 34 35  2  0  0  0  0
 35 36  1  0  0  0  0
 36 30  1  0  0  0  0
 36 37  2  0  0  0  0
 37 38  1  0  0  0  0
 37100  1  0  0  0  0
 38 52  1  0  0  0  0
 38 39  2  0  0  0  0
 39 31  1  0  0  0  0
 39 99  1  0  0  0  0
 40 49  1  0  0  0  0
 40 41  2  0  0  0  0
 41 42  1  0  0  0  0
 41108  1  0  0  0  0
 42 58  1  0  0  0  0
 42 43  2  0  0  0  0
 43 34  1  0  0  0  0
 43105  1  0  0  0  0
 45 46  1  0  0  0  0
 45 49  1  0  0  0  0
 45 22  1  0  0  0  0
 45 44  1  0  0  0  0
 46 48  1  0  0  0  0
 47 48  1  0  0  0  0
 47 88  1  0  0  0  0
 47 89  1  0  0  0  0
 47 90  1  0  0  0  0
 48 91  1  0  0  0  0
 48 92  1  0  0  0  0
 49 51  1  0  0  0  0
 50 51  1  0  0  0  0
 50 95  1  0  0  0  0
 50 96  1  0  0  0  0
 50 97  1  0  0  0  0
 51 93  1  0  0  0  0
 51 94  1  0  0  0  0
 52 53  1  0  0  0  0
 52 54  1  0  0  0  0
 52 55  1  0  0  0  0
 52 56  1  0  0  0  0
 52 57  1  0  0  0  0
 58 59  1  0  0  0  0
 58 60  1  0  0  0  0
 58 61  1  0  0  0  0
 58 62  1  0  0  0  0
 58 63  1  0  0  0  0
 64 65  1  0  0  0  0
 64 66  1  0  0  0  0
 64 67  1  0  0  0  0
 64 68  1  0  0  0  0
 64 69  1  0  0  0  0
 70 71  1  0  0  0  0
 70 72  1  0  0  0  0
 70 73  1  0  0  0  0
 70 74  1  0  0  0  0
 70 75  1  0  0  0  0
 76 77  1  0  0  0  0
 76 78  1  0  0  0  0
 76 79  1  0  0  0  0
 76 80  1  0  0  0  0
 76 81  1  0  0  0  0
 82 83  1  0  0  0  0
 82 84  1  0  0  0  0
 82 85  1  0  0  0  0
 82 86  1  0  0  0  0
 82 87  1  0  0  0  0
110111  2  0  0  0  0
110216  1  0  0  0  0
111112  1  0  0  0  0
112113  2  0  0  0  0
112116  1  0  0  0  0
113114  1  0  0  0  0
114115  2  0  0  0  0
114210  1  0  0  0  0
115110  1  0  0  0  0
115191  1  0  0  0  0
116117  1  0  0  0  0
116120  2  0  0  0  0
117118  1  0  0  0  0
118119  2  0  0  0  0
119113  1  0  0  0  0
120121  1  0  0  0  0
120127  1  0  0  0  0
121122  2  0  0  0  0
122123  1  0  0  0  0
123117  1  0  0  0  0
123124  2  0  0  0  0
124125  1  0  0  0  0
124211  1  0  0  0  0
125185  1  0  0  0  0
125126  2  0  0  0  0
126118  1  0  0  0  0
126212  1  0  0  0  0
127155  1  0  0  0  0
127128  2  0  0  0  0
128129  1  0  0  0  0
128215  1  0  0  0  0
129179  1  0  0  0  0
129130  2  0  0  0  0
130121  1  0  0  0  0
130213  1  0  0  0  0
131111  1  0  0  0  0
132133  2  0  0  0  0
132218  1  0  0  0  0
133134  1  0  0  0  0
133153  1  0  0  0  0
134135  2  0  0  0  0
134138  1  0  0  0  0
135136  1  0  0  0  0
136137  2  0  0  0  0
136207  1  0  0  0  0
137173  1  0  0  0  0
137132  1  0  0  0  0
138142  2  0  0  0  0
139138  1  0  0  0  0
139140  1  0  0  0  0
140141  2  0  0  0  0
141135  1  0  0  0  0
142143  1  0  0  0  0
142149  1  0  0  0  0
143144  2  0  0  0  0
144145  1  0  0  0  0
145139  1  0  0  0  0
145146  2  0  0  0  0
146147  1  0  0  0  0
146209  1  0  0  0  0
147161  1  0  0  0  0
147148  2  0  0  0  0
148140  1  0  0  0  0
148208  1  0  0  0  0
149158  1  0  0  0  0
149150  2  0  0  0  0
150151  1  0  0  0  0
150217  1  0  0  0  0
151167  1  0  0  0  0
151152  2  0  0  0  0
152143  1  0  0  0  0
152214  1  0  0  0  0
154155  1  0  0  0  0
154158  1  0  0  0  0
154131  1  0  0  0  0
154153  1  0  0  0  0
155157  1  0  0  0  0
156157  1  0  0  0  0
156197  1  0  0  0  0
156198  1  0  0  0  0
156199  1  0  0  0  0
157200  1  0  0  0  0
157201  1  0  0  0  0
158160  1  0  0  0  0
159160  1  0  0  0  0
159204  1  0  0  0  0
159205  1  0  0  0  0
159206  1  0  0  0  0
160202  1  0  0  0  0
160203  1  0  0  0  0
161162  1  0  0  0  0
161163  1  0  0  0  0
161164  1  0  0  0  0
161165  1  0  0  0  0
161166  1  0  0  0  0
167168  1  0  0  0  0
167169  1  0  0  0  0
167170  1  0  0  0  0
167171  1  0  0  0  0
167172  1  0  0  0  0
173174  1  0  0  0  0
173175  1  0  0  0  0
173176  1  0  0  0  0
173177  1  0  0  0  0
173178  1  0  0  0  0
179180  1  0  0  0  0
179181  1  0  0  0  0
179182  1  0  0  0  0
179183  1  0  0  0  0
179184  1  0  0  0  0
185186  1  0  0  0  0
185187  1  0  0  0  0
185188  1  0  0  0  0
185189  1  0  0  0  0
185190  1  0  0  0  0
191192  1  0  0  0  0
191193  1  0  0  0  0
191194  1  0  0  0  0
191195  1  0  0  0  0
191196  1  0  0  0  0
M  CHG  1   8   1
M  CHG  1  45  -1
M  CHG  1 117   1
M  CHG  1 154  -1
M  END
