 energy: -55.758855346604 gnorm: 0.000709558504 xtb: 6.7.1 (edcfbbe)
          03062511303D

302324  0     0  0            999 V2000
    2.0615    0.9796    0.9086 C   0  0  0  0  0  0  0  0  0  0  0  0
    1.7166   -0.2470    1.4684 C   0  0  0  0  0  0  0  0  0  0  0  0
    2.7545   -1.0985    1.9793 C   0  0  0  0  0  0  0  0  0  0  0  0
    4.0597   -0.5396    2.0840 C   0  0  0  0  0  0  0  0  0  0  0  0
    4.3345    0.7033    1.4885 C   0  0  0  0  0  0  0  0  0  0  0  0
    3.3660    1.4592    0.8810 C   0  0  0  0  0  0  0  0  0  0  0  0
    2.5800   -2.4548    2.4541 C   0  0  0  0  0  0  0  0  0  0  0  0
    3.5819   -2.9219    3.3307 C   0  0  0  0  0  0  0  0  0  0  0  0
    4.8102   -2.2218    3.4645 C   0  0  0  0  0  0  0  0  0  0  0  0
    5.0799   -1.1043    2.7689 N   0  0  0  0  0  0  0  0  0  0  0  0
    1.5383   -3.3896    2.1509 C   0  0  0  0  0  0  0  0  0  0  0  0
    1.4111   -4.5317    2.9972 C   0  0  0  0  0  0  0  0  0  0  0  0
    2.2742   -4.8476    3.9862 N   0  0  0  0  0  0  0  0  0  0  0  0
    3.3769   -4.0932    4.1048 C   0  0  0  0  0  0  0  0  0  0  0  0
    4.3518   -4.4719    5.0407 C   0  0  0  0  0  0  0  0  0  0  0  0
    5.5440   -3.7874    5.1892 C   0  0  0  0  0  0  0  0  0  0  0  0
    5.7699   -2.6912    4.3743 C   0  0  0  0  0  0  0  0  0  0  0  0
    0.6361   -3.3048    1.0194 C   0  0  0  0  0  0  0  0  0  0  0  0
   -0.4251   -4.2345    0.9365 C   0  0  0  0  0  0  0  0  0  0  0  0
   -0.6036   -5.2723    1.8269 C   0  0  0  0  0  0  0  0  0  0  0  0
    0.3412   -5.4249    2.8177 C   0  0  0  0  0  0  0  0  0  0  0  0
    0.3599   -0.5530    1.5316 O   0  0  0  0  0  0  0  0  0  0  0  0
   -3.8061   -2.3599    0.1359 C   0  0  0  0  0  0  0  0  0  0  0  0
   -2.8896   -1.4635    0.6822 C   0  0  0  0  0  0  0  0  0  0  0  0
   -3.3619   -0.2755    1.3221 C   0  0  0  0  0  0  0  0  0  0  0  0
   -4.7372   -0.2841    1.7072 C   0  0  0  0  0  0  0  0  0  0  0  0
   -5.6167   -1.2205    1.1258 C   0  0  0  0  0  0  0  0  0  0  0  0
   -5.1808   -2.2193    0.2910 C   0  0  0  0  0  0  0  0  0  0  0  0
   -2.5559    0.8703    1.6929 C   0  0  0  0  0  0  0  0  0  0  0  0
   -3.1020    1.6501    2.7405 C   0  0  0  0  0  0  0  0  0  0  0  0
   -4.4070    1.3842    3.2493 C   0  0  0  0  0  0  0  0  0  0  0  0
   -5.2449    0.5029    2.6779 N   0  0  0  0  0  0  0  0  0  0  0  0
   -1.4882    1.4800    0.9352 C   0  0  0  0  0  0  0  0  0  0  0  0
   -1.1206    2.8095    1.3327 C   0  0  0  0  0  0  0  0  0  0  0  0
   -1.3727    3.3255    2.5643 N   0  0  0  0  0  0  0  0  0  0  0  0
   -2.4162    2.7962    3.2282 C   0  0  0  0  0  0  0  0  0  0  0  0
   -2.9690    3.5339    4.2912 C   0  0  0  0  0  0  0  0  0  0  0  0
   -4.2219    3.2600    4.8121 C   0  0  0  0  0  0  0  0  0  0  0  0
   -4.9187    2.1906    4.2777 C   0  0  0  0  0  0  0  0  0  0  0  0
   -1.0046    1.0611   -0.3824 C   0  0  0  0  0  0  0  0  0  0  0  0
   -0.6868    2.0740   -1.3217 C   0  0  0  0  0  0  0  0  0  0  0  0
   -0.5521    3.4041   -0.9743 C   0  0  0  0  0  0  0  0  0  0  0  0
   -0.6612    3.7267    0.3649 C   0  0  0  0  0  0  0  0  0  0  0  0
   -1.5778   -1.8808    0.7219 O   0  0  0  0  0  0  0  0  0  0  0  0
   -0.3120   -1.2138    0.3844 B   0  0  0  0  0  0  0  0  0  0  0  0
    0.7156   -2.3254    0.0256 N   0  0  0  0  0  0  0  0  0  0  0  0
    2.0706   -2.9937   -1.9047 C   0  0  0  0  0  0  0  0  0  0  0  0
    1.8990   -2.0489   -0.7342 C   0  0  0  0  0  0  0  0  0  0  0  0
   -0.6948   -0.2299   -0.7241 N   0  0  0  0  0  0  0  0  0  0  0  0
   -1.3278   -2.0572   -2.2540 C   0  0  0  0  0  0  0  0  0  0  0  0
   -0.6833   -0.7003   -2.0783 C   0  0  0  0  0  0  0  0  0  0  0  0
   -4.9244    4.2376    5.7679 C   0  0  0  0  0  0  0  0  0  0  0  0
   -5.8551    3.4778    6.7323 C   0  0  0  0  0  0  0  0  0  0  0  0
   -3.9043    5.0295    6.6040 C   0  0  0  0  0  0  0  0  0  0  0  0
   -5.7574    5.2253    4.9339 C   0  0  0  0  0  0  0  0  0  0  0  0
   -0.3671    4.4737   -2.0647 C   0  0  0  0  0  0  0  0  0  0  0  0
   -1.5582    4.3956   -3.0381 C   0  0  0  0  0  0  0  0  0  0  0  0
   -0.3231    5.8930   -1.4661 C   0  0  0  0  0  0  0  0  0  0  0  0
    0.9395    4.2353   -2.8364 C   0  0  0  0  0  0  0  0  0  0  0  0
   -6.1804   -3.2031   -0.3322 C   0  0  0  0  0  0  0  0  0  0  0  0
   -7.3677   -2.4267   -0.9342 C   0  0  0  0  0  0  0  0  0  0  0  0
   -5.5300   -4.0244   -1.4625 C   0  0  0  0  0  0  0  0  0  0  0  0
   -6.6916   -4.1627    0.7547 C   0  0  0  0  0  0  0  0  0  0  0  0
   -1.7408   -6.2948    1.6811 C   0  0  0  0  0  0  0  0  0  0  0  0
   -1.1928   -7.5486    0.9811 C   0  0  0  0  0  0  0  0  0  0  0  0
   -2.2985   -6.6804    3.0660 C   0  0  0  0  0  0  0  0  0  0  0  0
   -2.9028   -5.7207    0.8521 C   0  0  0  0  0  0  0  0  0  0  0  0
    6.5465   -4.2330    6.2633 C   0  0  0  0  0  0  0  0  0  0  0  0
    7.8159   -3.3602    6.2582 C   0  0  0  0  0  0  0  0  0  0  0  0
    5.8848   -4.1137    7.6468 C   0  0  0  0  0  0  0  0  0  0  0  0
    6.9569   -5.6942    6.0074 C   0  0  0  0  0  0  0  0  0  0  0  0
    3.7098    2.7561    0.1380 C   0  0  0  0  0  0  0  0  0  0  0  0
    5.1604    3.2048    0.4025 C   0  0  0  0  0  0  0  0  0  0  0  0
    5.3700    4.1479   -0.1019 H   0  0  0  0  0  0  0  0  0  0  0  0
    5.8753    2.4711    0.0317 H   0  0  0  0  0  0  0  0  0  0  0  0
    5.3350    3.3531    1.4680 H   0  0  0  0  0  0  0  0  0  0  0  0
    3.5435    2.4977   -1.3680 C   0  0  0  0  0  0  0  0  0  0  0  0
    4.2020    1.6924   -1.6928 H   0  0  0  0  0  0  0  0  0  0  0  0
    3.7905    3.3855   -1.9491 H   0  0  0  0  0  0  0  0  0  0  0  0
    2.5217    2.2005   -1.6008 H   0  0  0  0  0  0  0  0  0  0  0  0
    2.7763    3.8873    0.5980 C   0  0  0  0  0  0  0  0  0  0  0  0
    2.8623    4.0416    1.6729 H   0  0  0  0  0  0  0  0  0  0  0  0
    1.7391    3.6556    0.3742 H   0  0  0  0  0  0  0  0  0  0  0  0
    3.0223    4.8258    0.1019 H   0  0  0  0  0  0  0  0  0  0  0  0
    7.5756   -2.3180    6.4670 H   0  0  0  0  0  0  0  0  0  0  0  0
    8.3250   -3.4137    5.2964 H   0  0  0  0  0  0  0  0  0  0  0  0
    8.5173   -3.6943    7.0225 H   0  0  0  0  0  0  0  0  0  0  0  0
    5.5676   -3.0886    7.8361 H   0  0  0  0  0  0  0  0  0  0  0  0
    6.5746   -4.4036    8.4387 H   0  0  0  0  0  0  0  0  0  0  0  0
    5.0050   -4.7508    7.7232 H   0  0  0  0  0  0  0  0  0  0  0  0
    0.9752    3.2342   -3.2638 H   0  0  0  0  0  0  0  0  0  0  0  0
    1.7964    4.3607   -2.1781 H   0  0  0  0  0  0  0  0  0  0  0  0
    1.0438    4.9495   -3.6529 H   0  0  0  0  0  0  0  0  0  0  0  0
   -1.2404    6.1178   -0.9224 H   0  0  0  0  0  0  0  0  0  0  0  0
   -0.2143    6.6404   -2.2518 H   0  0  0  0  0  0  0  0  0  0  0  0
    0.5199    6.0070   -0.7851 H   0  0  0  0  0  0  0  0  0  0  0  0
   -2.4983    4.5446   -2.5075 H   0  0  0  0  0  0  0  0  0  0  0  0
   -1.6024    3.4251   -3.5307 H   0  0  0  0  0  0  0  0  0  0  0  0
   -1.4821    5.1595   -3.8115 H   0  0  0  0  0  0  0  0  0  0  0  0
   -6.5024    4.6982    4.3386 H   0  0  0  0  0  0  0  0  0  0  0  0
   -5.1205    5.7862    4.2504 H   0  0  0  0  0  0  0  0  0  0  0  0
   -6.2767    5.9372    5.5749 H   0  0  0  0  0  0  0  0  0  0  0  0
   -3.2305    4.3501    7.1175 H   0  0  0  0  0  0  0  0  0  0  0  0
   -4.4032    5.6382    7.3577 H   0  0  0  0  0  0  0  0  0  0  0  0
   -3.3087    5.6994    5.9856 H   0  0  0  0  0  0  0  0  0  0  0  0
   -5.3195    2.6639    7.2137 H   0  0  0  0  0  0  0  0  0  0  0  0
   -6.7139    3.0544    6.2139 H   0  0  0  0  0  0  0  0  0  0  0  0
   -6.2366    4.1379    7.5108 H   0  0  0  0  0  0  0  0  0  0  0  0
   -5.0867   -3.3705   -2.2131 H   0  0  0  0  0  0  0  0  0  0  0  0
   -6.2699   -4.6509   -1.9602 H   0  0  0  0  0  0  0  0  0  0  0  0
   -4.7537   -4.6843   -1.0791 H   0  0  0  0  0  0  0  0  0  0  0  0
   -7.1868   -3.6159    1.5561 H   0  0  0  0  0  0  0  0  0  0  0  0
   -5.8690   -4.7270    1.1922 H   0  0  0  0  0  0  0  0  0  0  0  0
   -7.4061   -4.8745    0.3423 H   0  0  0  0  0  0  0  0  0  0  0  0
   -7.0195   -1.6995   -1.6673 H   0  0  0  0  0  0  0  0  0  0  0  0
   -7.9264   -1.8914   -0.1681 H   0  0  0  0  0  0  0  0  0  0  0  0
   -8.0615   -3.1026   -1.4334 H   0  0  0  0  0  0  0  0  0  0  0  0
    7.4027   -5.8009    5.0189 H   0  0  0  0  0  0  0  0  0  0  0  0
    6.0988   -6.3627    6.0616 H   0  0  0  0  0  0  0  0  0  0  0  0
    7.6859   -6.0289    6.7450 H   0  0  0  0  0  0  0  0  0  0  0  0
    6.6837   -2.1334    4.4522 H   0  0  0  0  0  0  0  0  0  0  0  0
    4.1478   -5.3307    5.6527 H   0  0  0  0  0  0  0  0  0  0  0  0
    5.3489    1.0518    1.5380 H   0  0  0  0  0  0  0  0  0  0  0  0
    0.2900   -6.2698    3.4785 H   0  0  0  0  0  0  0  0  0  0  0  0
    1.2717    1.5672    0.4844 H   0  0  0  0  0  0  0  0  0  0  0  0
   -1.1209   -4.1055    0.1312 H   0  0  0  0  0  0  0  0  0  0  0  0
   -3.4129   -3.2162   -0.3762 H   0  0  0  0  0  0  0  0  0  0  0  0
   -0.4671    1.7945   -2.3346 H   0  0  0  0  0  0  0  0  0  0  0  0
   -6.6571   -1.1517    1.3846 H   0  0  0  0  0  0  0  0  0  0  0  0
   -0.5153    4.7398    0.6892 H   0  0  0  0  0  0  0  0  0  0  0  0
   -5.9212    1.9865    4.6041 H   0  0  0  0  0  0  0  0  0  0  0  0
   -2.4212    4.3930    4.6286 H   0  0  0  0  0  0  0  0  0  0  0  0
   -1.5582   -7.2078    3.6653 H   0  0  0  0  0  0  0  0  0  0  0  0
   -3.1628   -7.3368    2.9672 H   0  0  0  0  0  0  0  0  0  0  0  0
   -2.6126   -5.7942    3.6153 H   0  0  0  0  0  0  0  0  0  0  0  0
   -2.6003   -5.5342   -0.1775 H   0  0  0  0  0  0  0  0  0  0  0  0
   -3.2566   -4.7879    1.2888 H   0  0  0  0  0  0  0  0  0  0  0  0
   -3.7408   -6.4169    0.8237 H   0  0  0  0  0  0  0  0  0  0  0  0
   -0.3830   -7.9933    1.5588 H   0  0  0  0  0  0  0  0  0  0  0  0
   -0.8020   -7.2998   -0.0053 H   0  0  0  0  0  0  0  0  0  0  0  0
   -1.9723   -8.3000    0.8575 H   0  0  0  0  0  0  0  0  0  0  0  0
    0.3480   -0.6947   -2.4431 H   0  0  0  0  0  0  0  0  0  0  0  0
   -1.2207    0.0227   -2.7013 H   0  0  0  0  0  0  0  0  0  0  0  0
   -0.8654   -2.7956   -1.6011 H   0  0  0  0  0  0  0  0  0  0  0  0
   -1.2533   -2.4225   -3.2807 H   0  0  0  0  0  0  0  0  0  0  0  0
   -2.3860   -2.0164   -1.9962 H   0  0  0  0  0  0  0  0  0  0  0  0
    2.7630   -2.1343   -0.0688 H   0  0  0  0  0  0  0  0  0  0  0  0
    1.8754   -1.0034   -1.0570 H   0  0  0  0  0  0  0  0  0  0  0  0
    2.0912   -4.0303   -1.5641 H   0  0  0  0  0  0  0  0  0  0  0  0
    2.9969   -2.8046   -2.4517 H   0  0  0  0  0  0  0  0  0  0  0  0
    1.2473   -2.9070   -2.6137 H   0  0  0  0  0  0  0  0  0  0  0  0
    1.0274    2.0610    9.7807 C   0  0  0  0  0  0  0  0  0  0  0  0
    1.3856    0.7959    9.3088 C   0  0  0  0  0  0  0  0  0  0  0  0
    2.6313    0.2037    9.7588 C   0  0  0  0  0  0  0  0  0  0  0  0
    3.4659    1.0467   10.5578 C   0  0  0  0  0  0  0  0  0  0  0  0
    3.0461    2.3345   10.9371 C   0  0  0  0  0  0  0  0  0  0  0  0
    1.8195    2.8386   10.6112 C   0  0  0  0  0  0  0  0  0  0  0  0
    3.1041   -1.1673    9.5874 C   0  0  0  0  0  0  0  0  0  0  0  0
    4.2250   -1.5572   10.3571 C   0  0  0  0  0  0  0  0  0  0  0  0
    5.0173   -0.5901   11.0250 C   0  0  0  0  0  0  0  0  0  0  0  0
    4.6712    0.7019   11.0682 N   0  0  0  0  0  0  0  0  0  0  0  0
    2.5568   -2.2318    8.7979 C   0  0  0  0  0  0  0  0  0  0  0  0
    2.8655   -3.5835    9.1483 C   0  0  0  0  0  0  0  0  0  0  0  0
    3.8855   -3.9307    9.9552 N   0  0  0  0  0  0  0  0  0  0  0  0
    4.6084   -2.9247   10.4709 C   0  0  0  0  0  0  0  0  0  0  0  0
    5.7694   -3.2578   11.1872 C   0  0  0  0  0  0  0  0  0  0  0  0
    6.5757   -2.3090   11.7853 C   0  0  0  0  0  0  0  0  0  0  0  0
    6.1839   -0.9856   11.6976 C   0  0  0  0  0  0  0  0  0  0  0  0
    1.7146   -2.0547    7.6436 C   0  0  0  0  0  0  0  0  0  0  0  0
    0.9325   -3.1471    7.2064 C   0  0  0  0  0  0  0  0  0  0  0  0
    1.0973   -4.4289    7.6869 C   0  0  0  0  0  0  0  0  0  0  0  0
    2.1060   -4.6371    8.6054 C   0  0  0  0  0  0  0  0  0  0  0  0
    0.4004    0.2949    8.4529 O   0  0  0  0  0  0  0  0  0  0  0  0
   -2.8387   -1.7045    5.9875 C   0  0  0  0  0  0  0  0  0  0  0  0
   -2.0907   -0.7741    6.7071 C   0  0  0  0  0  0  0  0  0  0  0  0
   -2.7561    0.3657    7.2876 C   0  0  0  0  0  0  0  0  0  0  0  0
   -4.1706    0.1965    7.4671 C   0  0  0  0  0  0  0  0  0  0  0  0
   -4.8703   -0.7523    6.6892 C   0  0  0  0  0  0  0  0  0  0  0  0
   -4.2214   -1.6565    5.8860 C   0  0  0  0  0  0  0  0  0  0  0  0
   -2.1805    1.6183    7.7735 C   0  0  0  0  0  0  0  0  0  0  0  0
   -2.9610    2.2784    8.7484 C   0  0  0  0  0  0  0  0  0  0  0  0
   -4.2353    1.7694    9.1370 C   0  0  0  0  0  0  0  0  0  0  0  0
   -4.8824    0.8337    8.4210 N   0  0  0  0  0  0  0  0  0  0  0  0
   -1.1046    2.4026    7.2227 C   0  0  0  0  0  0  0  0  0  0  0  0
   -0.9697    3.7596    7.6545 C   0  0  0  0  0  0  0  0  0  0  0  0
   -1.5621    4.2563    8.7624 N   0  0  0  0  0  0  0  0  0  0  0  0
   -2.5460    3.5213    9.3032 C   0  0  0  0  0  0  0  0  0  0  0  0
   -3.2853    4.0843   10.3562 C   0  0  0  0  0  0  0  0  0  0  0  0
   -4.4541    3.5194   10.8296 C   0  0  0  0  0  0  0  0  0  0  0  0
   -4.9290    2.3876   10.1901 C   0  0  0  0  0  0  0  0  0  0  0  0
   -0.2581    2.0204    6.1152 C   0  0  0  0  0  0  0  0  0  0  0  0
    0.3657    3.0179    5.3327 C   0  0  0  0  0  0  0  0  0  0  0  0
    0.4117    4.3400    5.7142 C   0  0  0  0  0  0  0  0  0  0  0  0
   -0.2169    4.6785    6.8943 C   0  0  0  0  0  0  0  0  0  0  0  0
   -0.7868   -1.1622    6.9062 O   0  0  0  0  0  0  0  0  0  0  0  0
    0.3184   -0.2287    7.0490 B   0  0  0  0  0  0  0  0  0  0  0  0
    1.6897   -0.8861    6.9112 N   0  0  0  0  0  0  0  0  0  0  0  0
    3.7868   -0.4911    5.7321 C   0  0  0  0  0  0  0  0  0  0  0  0
    2.7765    0.0246    6.7235 C   0  0  0  0  0  0  0  0  0  0  0  0
    0.1049    0.7301    5.8686 N   0  0  0  0  0  0  0  0  0  0  0  0
    0.2679   -1.2143    4.3417 C   0  0  0  0  0  0  0  0  0  0  0  0
    0.4314    0.2737    4.5480 C   0  0  0  0  0  0  0  0  0  0  0  0
   -5.2229    4.2100   11.9643 C   0  0  0  0  0  0  0  0  0  0  0  0
   -6.4253    3.3678   12.4316 C   0  0  0  0  0  0  0  0  0  0  0  0
   -4.2829    4.4188   13.1666 C   0  0  0  0  0  0  0  0  0  0  0  0
   -5.7389    5.5713   11.4653 C   0  0  0  0  0  0  0  0  0  0  0  0
    1.2173    5.3442    4.8779 C   0  0  0  0  0  0  0  0  0  0  0  0
    0.6700    5.3693    3.4404 C   0  0  0  0  0  0  0  0  0  0  0  0
    1.1284    6.7677    5.4582 C   0  0  0  0  0  0  0  0  0  0  0  0
    2.6951    4.9112    4.8598 C   0  0  0  0  0  0  0  0  0  0  0  0
   -4.9680   -2.6840    5.0278 C   0  0  0  0  0  0  0  0  0  0  0  0
   -6.3233   -2.1187    4.5634 C   0  0  0  0  0  0  0  0  0  0  0  0
   -4.1377   -3.0303    3.7746 C   0  0  0  0  0  0  0  0  0  0  0  0
   -5.1979   -3.9591    5.8529 C   0  0  0  0  0  0  0  0  0  0  0  0
    0.2333   -5.6046    7.2106 C   0  0  0  0  0  0  0  0  0  0  0  0
    1.1214   -6.6314    6.4878 C   0  0  0  0  0  0  0  0  0  0  0  0
   -0.4377   -6.2661    8.4281 C   0  0  0  0  0  0  0  0  0  0  0  0
   -0.8737   -5.1374    6.2469 C   0  0  0  0  0  0  0  0  0  0  0  0
    7.8439   -2.7493   12.5309 C   0  0  0  0  0  0  0  0  0  0  0  0
    8.6179   -1.5451   13.1006 C   0  0  0  0  0  0  0  0  0  0  0  0
    7.4518   -3.6729   13.6983 C   0  0  0  0  0  0  0  0  0  0  0  0
    8.7680   -3.5049   11.5581 C   0  0  0  0  0  0  0  0  0  0  0  0
    1.3326    4.1944   11.1459 C   0  0  0  0  0  0  0  0  0  0  0  0
    2.2797    4.7603   12.2222 C   0  0  0  0  0  0  0  0  0  0  0  0
    1.8889    5.6935   12.6275 H   0  0  0  0  0  0  0  0  0  0  0  0
    3.2655    4.9721   11.8091 H   0  0  0  0  0  0  0  0  0  0  0  0
    2.3929    4.0610   13.0502 H   0  0  0  0  0  0  0  0  0  0  0  0
    1.2602    5.1989    9.9884 C   0  0  0  0  0  0  0  0  0  0  0  0
    2.2344    5.3187    9.5151 H   0  0  0  0  0  0  0  0  0  0  0  0
    0.9252    6.1761   10.3351 H   0  0  0  0  0  0  0  0  0  0  0  0
    0.5609    4.8547    9.2331 H   0  0  0  0  0  0  0  0  0  0  0  0
   -0.0580    4.0206   11.7822 C   0  0  0  0  0  0  0  0  0  0  0  0
   -0.0190    3.3087   12.6061 H   0  0  0  0  0  0  0  0  0  0  0  0
   -0.7776    3.6490   11.0569 H   0  0  0  0  0  0  0  0  0  0  0  0
   -0.4332    4.9676   12.1689 H   0  0  0  0  0  0  0  0  0  0  0  0
    8.0126   -0.9943   13.8201 H   0  0  0  0  0  0  0  0  0  0  0  0
    8.9198   -0.8621   12.3069 H   0  0  0  0  0  0  0  0  0  0  0  0
    9.5209   -1.8740   13.6144 H   0  0  0  0  0  0  0  0  0  0  0  0
    6.7796   -3.1596   14.3855 H   0  0  0  0  0  0  0  0  0  0  0  0
    8.3315   -3.9885   14.2588 H   0  0  0  0  0  0  0  0  0  0  0  0
    6.9447   -4.5684   13.3416 H   0  0  0  0  0  0  0  0  0  0  0  0
    2.8142    3.9262    4.4097 H   0  0  0  0  0  0  0  0  0  0  0  0
    3.0945    4.8651    5.8726 H   0  0  0  0  0  0  0  0  0  0  0  0
    3.3012    5.6140    4.2885 H   0  0  0  0  0  0  0  0  0  0  0  0
    0.0947    7.1111    5.4950 H   0  0  0  0  0  0  0  0  0  0  0  0
    1.6891    7.4712    4.8431 H   0  0  0  0  0  0  0  0  0  0  0  0
    1.5427    6.8078    6.4653 H   0  0  0  0  0  0  0  0  0  0  0  0
   -0.3799    5.6601    3.4326 H   0  0  0  0  0  0  0  0  0  0  0  0
    0.7448    4.3879    2.9753 H   0  0  0  0  0  0  0  0  0  0  0  0
    1.2220    6.0763    2.8215 H   0  0  0  0  0  0  0  0  0  0  0  0
   -6.3942    5.4425   10.6041 H   0  0  0  0  0  0  0  0  0  0  0  0
   -4.9158    6.2183   11.1642 H   0  0  0  0  0  0  0  0  0  0  0  0
   -6.3013    6.0854   12.2445 H   0  0  0  0  0  0  0  0  0  0  0  0
   -3.8790    3.4662   13.5085 H   0  0  0  0  0  0  0  0  0  0  0  0
   -4.8127    4.8796   14.0000 H   0  0  0  0  0  0  0  0  0  0  0  0
   -3.4445    5.0648   12.9099 H   0  0  0  0  0  0  0  0  0  0  0  0
   -6.1055    2.3787   12.7587 H   0  0  0  0  0  0  0  0  0  0  0  0
   -7.1574    3.2488   11.6335 H   0  0  0  0  0  0  0  0  0  0  0  0
   -6.9308    3.8474   13.2696 H   0  0  0  0  0  0  0  0  0  0  0  0
   -3.8541   -2.1254    3.2403 H   0  0  0  0  0  0  0  0  0  0  0  0
   -4.7058   -3.6622    3.0933 H   0  0  0  0  0  0  0  0  0  0  0  0
   -3.2248   -3.5652    4.0301 H   0  0  0  0  0  0  0  0  0  0  0  0
   -5.7909   -3.7434    6.7412 H   0  0  0  0  0  0  0  0  0  0  0  0
   -4.2497   -4.3854    6.1797 H   0  0  0  0  0  0  0  0  0  0  0  0
   -5.7241   -4.7133    5.2681 H   0  0  0  0  0  0  0  0  0  0  0  0
   -6.1879   -1.1638    4.0575 H   0  0  0  0  0  0  0  0  0  0  0  0
   -7.0015   -1.9671    5.4018 H   0  0  0  0  0  0  0  0  0  0  0  0
   -6.8118   -2.8020    3.8696 H   0  0  0  0  0  0  0  0  0  0  0  0
    9.0344   -2.8728   10.7113 H   0  0  0  0  0  0  0  0  0  0  0  0
    8.2864   -4.4007   11.1682 H   0  0  0  0  0  0  0  0  0  0  0  0
    9.6889   -3.8114   12.0538 H   0  0  0  0  0  0  0  0  0  0  0  0
    6.7607   -0.2149   12.1730 H   0  0  0  0  0  0  0  0  0  0  0  0
    6.0271   -4.2983   11.2582 H   0  0  0  0  0  0  0  0  0  0  0  0
    3.7184    2.8989   11.5562 H   0  0  0  0  0  0  0  0  0  0  0  0
    2.3247   -5.6336    8.9426 H   0  0  0  0  0  0  0  0  0  0  0  0
    0.0788    2.4436    9.4575 H   0  0  0  0  0  0  0  0  0  0  0  0
    0.1955   -2.9560    6.4525 H   0  0  0  0  0  0  0  0  0  0  0  0
   -2.3123   -2.5324    5.5530 H   0  0  0  0  0  0  0  0  0  0  0  0
    0.9092    2.7174    4.4568 H   0  0  0  0  0  0  0  0  0  0  0  0
   -5.9408   -0.7735    6.7755 H   0  0  0  0  0  0  0  0  0  0  0  0
   -0.1899    5.6938    7.2427 H   0  0  0  0  0  0  0  0  0  0  0  0
   -5.8784    1.9677   10.4643 H   0  0  0  0  0  0  0  0  0  0  0  0
   -2.9419    5.0182   10.7615 H   0  0  0  0  0  0  0  0  0  0  0  0
    0.3024   -6.6615    9.1225 H   0  0  0  0  0  0  0  0  0  0  0  0
   -1.0796   -7.0909    8.1196 H   0  0  0  0  0  0  0  0  0  0  0  0
   -1.0503   -5.5440    8.9673 H   0  0  0  0  0  0  0  0  0  0  0  0
   -0.4517   -4.6855    5.3500 H   0  0  0  0  0  0  0  0  0  0  0  0
   -1.5233   -4.4086    6.7302 H   0  0  0  0  0  0  0  0  0  0  0  0
   -1.4944   -5.9769    5.9355 H   0  0  0  0  0  0  0  0  0  0  0  0
    1.8835   -7.0336    7.1541 H   0  0  0  0  0  0  0  0  0  0  0  0
    1.6287   -6.1706    5.6426 H   0  0  0  0  0  0  0  0  0  0  0  0
    0.5292   -7.4660    6.1132 H   0  0  0  0  0  0  0  0  0  0  0  0
    1.4503    0.5898    4.3022 H   0  0  0  0  0  0  0  0  0  0  0  0
   -0.2239    0.8105    3.8501 H   0  0  0  0  0  0  0  0  0  0  0  0
    1.0271   -1.7757    4.8854 H   0  0  0  0  0  0  0  0  0  0  0  0
    0.3356   -1.4966    3.2921 H   0  0  0  0  0  0  0  0  0  0  0  0
   -0.7069   -1.5425    4.6911 H   0  0  0  0  0  0  0  0  0  0  0  0
    3.2641    0.2182    7.6796 H   0  0  0  0  0  0  0  0  0  0  0  0
    2.3653    0.9891    6.4059 H   0  0  0  0  0  0  0  0  0  0  0  0
    4.1928   -1.4476    6.0640 H   0  0  0  0  0  0  0  0  0  0  0  0
    4.6219    0.1982    5.5895 H   0  0  0  0  0  0  0  0  0  0  0  0
    3.3246   -0.6583    4.7597 H   0  0  0  0  0  0  0  0  0  0  0  0
  1  2  2  0  0  0  0
  1125  1  0  0  0  0
  2  3  1  0  0  0  0
  3  4  2  0  0  0  0
  3  7  1  0  0  0  0
  4  5  1  0  0  0  0
  5  6  2  0  0  0  0
  5123  1  0  0  0  0
  6  1  1  0  0  0  0
  6 72  1  0  0  0  0
  7  8  1  0  0  0  0
  7 11  2  0  0  0  0
  8  9  1  0  0  0  0
  9 10  2  0  0  0  0
 10  4  1  0  0  0  0
 11 12  1  0  0  0  0
 11 18  1  0  0  0  0
 12 13  2  0  0  0  0
 13 14  1  0  0  0  0
 14  8  1  0  0  0  0
 14 15  2  0  0  0  0
 15 16  1  0  0  0  0
 15122  1  0  0  0  0
 16 68  1  0  0  0  0
 16 17  2  0  0  0  0
 17  9  1  0  0  0  0
 17121  1  0  0  0  0
 18 46  1  0  0  0  0
 18 19  2  0  0  0  0
 19 20  1  0  0  0  0
 19126  1  0  0  0  0
 20 64  1  0  0  0  0
 20 21  2  0  0  0  0
 21 12  1  0  0  0  0
 21124  1  0  0  0  0
 22  2  1  0  0  0  0
 23 24  2  0  0  0  0
 23127  1  0  0  0  0
 24 25  1  0  0  0  0
 24 44  1  0  0  0  0
 25 26  2  0  0  0  0
 25 29  1  0  0  0  0
 26 27  1  0  0  0  0
 27 28  2  0  0  0  0
 27129  1  0  0  0  0
 28 60  1  0  0  0  0
 28 23  1  0  0  0  0
 29 33  2  0  0  0  0
 30 29  1  0  0  0  0
 30 31  1  0  0  0  0
 31 32  2  0  0  0  0
 32 26  1  0  0  0  0
 33 34  1  0  0  0  0
 33 40  1  0  0  0  0
 34 35  2  0  0  0  0
 35 36  1  0  0  0  0
 36 30  1  0  0  0  0
 36 37  2  0  0  0  0
 37 38  1  0  0  0  0
 37132  1  0  0  0  0
 38 52  1  0  0  0  0
 38 39  2  0  0  0  0
 39 31  1  0  0  0  0
 39131  1  0  0  0  0
 40 49  1  0  0  0  0
 40 41  2  0  0  0  0
 41 42  1  0  0  0  0
 41128  1  0  0  0  0
 42 56  1  0  0  0  0
 42 43  2  0  0  0  0
 43 34  1  0  0  0  0
 43130  1  0  0  0  0
 45 46  1  0  0  0  0
 45 49  1  0  0  0  0
 45 22  1  0  0  0  0
 45 44  1  0  0  0  0
 46 48  1  0  0  0  0
 47 48  1  0  0  0  0
 47149  1  0  0  0  0
 47150  1  0  0  0  0
 47151  1  0  0  0  0
 48147  1  0  0  0  0
 48148  1  0  0  0  0
 49 51  1  0  0  0  0
 50 51  1  0  0  0  0
 50144  1  0  0  0  0
 50145  1  0  0  0  0
 50146  1  0  0  0  0
 51142  1  0  0  0  0
 51143  1  0  0  0  0
 52 53  1  0  0  0  0
 52 54  1  0  0  0  0
 52 55  1  0  0  0  0
 53106  1  0  0  0  0
 53107  1  0  0  0  0
 53108  1  0  0  0  0
 54103  1  0  0  0  0
 54104  1  0  0  0  0
 54105  1  0  0  0  0
 55100  1  0  0  0  0
 55101  1  0  0  0  0
 55102  1  0  0  0  0
 56 57  1  0  0  0  0
 56 58  1  0  0  0  0
 56 59  1  0  0  0  0
 57 97  1  0  0  0  0
 57 98  1  0  0  0  0
 57 99  1  0  0  0  0
 58 94  1  0  0  0  0
 58 95  1  0  0  0  0
 58 96  1  0  0  0  0
 59 91  1  0  0  0  0
 59 92  1  0  0  0  0
 59 93  1  0  0  0  0
 60 61  1  0  0  0  0
 60 62  1  0  0  0  0
 60 63  1  0  0  0  0
 61115  1  0  0  0  0
 61116  1  0  0  0  0
 61117  1  0  0  0  0
 62109  1  0  0  0  0
 62110  1  0  0  0  0
 62111  1  0  0  0  0
 63112  1  0  0  0  0
 63113  1  0  0  0  0
 63114  1  0  0  0  0
 64 65  1  0  0  0  0
 64 66  1  0  0  0  0
 64 67  1  0  0  0  0
 65139  1  0  0  0  0
 65140  1  0  0  0  0
 65141  1  0  0  0  0
 66133  1  0  0  0  0
 66134  1  0  0  0  0
 66135  1  0  0  0  0
 67136  1  0  0  0  0
 67137  1  0  0  0  0
 67138  1  0  0  0  0
 68 69  1  0  0  0  0
 68 70  1  0  0  0  0
 68 71  1  0  0  0  0
 69 85  1  0  0  0  0
 69 86  1  0  0  0  0
 69 87  1  0  0  0  0
 70 88  1  0  0  0  0
 70 89  1  0  0  0  0
 70 90  1  0  0  0  0
 71118  1  0  0  0  0
 71119  1  0  0  0  0
 71120  1  0  0  0  0
 72 73  1  0  0  0  0
 72 77  1  0  0  0  0
 72 81  1  0  0  0  0
 73 74  1  0  0  0  0
 73 75  1  0  0  0  0
 73 76  1  0  0  0  0
 77 78  1  0  0  0  0
 77 79  1  0  0  0  0
 77 80  1  0  0  0  0
 81 82  1  0  0  0  0
 81 83  1  0  0  0  0
 81 84  1  0  0  0  0
152153  2  0  0  0  0
152276  1  0  0  0  0
153154  1  0  0  0  0
154155  2  0  0  0  0
154158  1  0  0  0  0
155156  1  0  0  0  0
156157  2  0  0  0  0
156274  1  0  0  0  0
157152  1  0  0  0  0
157223  1  0  0  0  0
158159  1  0  0  0  0
158162  2  0  0  0  0
159160  1  0  0  0  0
160161  2  0  0  0  0
161155  1  0  0  0  0
162163  1  0  0  0  0
162169  1  0  0  0  0
163164  2  0  0  0  0
164165  1  0  0  0  0
165159  1  0  0  0  0
165166  2  0  0  0  0
166167  1  0  0  0  0
166273  1  0  0  0  0
167219  1  0  0  0  0
167168  2  0  0  0  0
168160  1  0  0  0  0
168272  1  0  0  0  0
169197  1  0  0  0  0
169170  2  0  0  0  0
170171  1  0  0  0  0
170277  1  0  0  0  0
171215  1  0  0  0  0
171172  2  0  0  0  0
172163  1  0  0  0  0
172275  1  0  0  0  0
173153  1  0  0  0  0
174175  2  0  0  0  0
174278  1  0  0  0  0
175176  1  0  0  0  0
175195  1  0  0  0  0
176177  2  0  0  0  0
176180  1  0  0  0  0
177178  1  0  0  0  0
178179  2  0  0  0  0
178280  1  0  0  0  0
179211  1  0  0  0  0
179174  1  0  0  0  0
180184  2  0  0  0  0
181180  1  0  0  0  0
181182  1  0  0  0  0
182183  2  0  0  0  0
183177  1  0  0  0  0
184185  1  0  0  0  0
184191  1  0  0  0  0
185186  2  0  0  0  0
186187  1  0  0  0  0
187181  1  0  0  0  0
187188  2  0  0  0  0
188189  1  0  0  0  0
188283  1  0  0  0  0
189203  1  0  0  0  0
189190  2  0  0  0  0
190182  1  0  0  0  0
190282  1  0  0  0  0
191200  1  0  0  0  0
191192  2  0  0  0  0
192193  1  0  0  0  0
192279  1  0  0  0  0
193207  1  0  0  0  0
193194  2  0  0  0  0
194185  1  0  0  0  0
194281  1  0  0  0  0
196197  1  0  0  0  0
196200  1  0  0  0  0
196173  1  0  0  0  0
196195  1  0  0  0  0
197199  1  0  0  0  0
198199  1  0  0  0  0
198300  1  0  0  0  0
198301  1  0  0  0  0
198302  1  0  0  0  0
199298  1  0  0  0  0
199299  1  0  0  0  0
200202  1  0  0  0  0
201202  1  0  0  0  0
201295  1  0  0  0  0
201296  1  0  0  0  0
201297  1  0  0  0  0
202293  1  0  0  0  0
202294  1  0  0  0  0
203204  1  0  0  0  0
203205  1  0  0  0  0
203206  1  0  0  0  0
204257  1  0  0  0  0
204258  1  0  0  0  0
204259  1  0  0  0  0
205254  1  0  0  0  0
205255  1  0  0  0  0
205256  1  0  0  0  0
206251  1  0  0  0  0
206252  1  0  0  0  0
206253  1  0  0  0  0
207208  1  0  0  0  0
207209  1  0  0  0  0
207210  1  0  0  0  0
208248  1  0  0  0  0
208249  1  0  0  0  0
208250  1  0  0  0  0
209245  1  0  0  0  0
209246  1  0  0  0  0
209247  1  0  0  0  0
210242  1  0  0  0  0
210243  1  0  0  0  0
210244  1  0  0  0  0
211212  1  0  0  0  0
211213  1  0  0  0  0
211214  1  0  0  0  0
212266  1  0  0  0  0
212267  1  0  0  0  0
212268  1  0  0  0  0
213260  1  0  0  0  0
213261  1  0  0  0  0
213262  1  0  0  0  0
214263  1  0  0  0  0
214264  1  0  0  0  0
214265  1  0  0  0  0
215216  1  0  0  0  0
215217  1  0  0  0  0
215218  1  0  0  0  0
216290  1  0  0  0  0
216291  1  0  0  0  0
216292  1  0  0  0  0
217284  1  0  0  0  0
217285  1  0  0  0  0
217286  1  0  0  0  0
218287  1  0  0  0  0
218288  1  0  0  0  0
218289  1  0  0  0  0
219220  1  0  0  0  0
219221  1  0  0  0  0
219222  1  0  0  0  0
220236  1  0  0  0  0
220237  1  0  0  0  0
220238  1  0  0  0  0
221239  1  0  0  0  0
221240  1  0  0  0  0
221241  1  0  0  0  0
222269  1  0  0  0  0
222270  1  0  0  0  0
222271  1  0  0  0  0
223224  1  0  0  0  0
223228  1  0  0  0  0
223232  1  0  0  0  0
224225  1  0  0  0  0
224226  1  0  0  0  0
224227  1  0  0  0  0
228229  1  0  0  0  0
228230  1  0  0  0  0
228231  1  0  0  0  0
232233  1  0  0  0  0
232234  1  0  0  0  0
232235  1  0  0  0  0
M  CHG  1   8   1
M  CHG  1  45  -1
M  CHG  1 159   1
M  CHG  1 196  -1
M  END
