 energy: -187.565626617369 gnorm: 0.000102039656 xtb: 6.7.1 (edcfbbe)
          02282512213D

136146  0     0  0            999 V2000
   -1.3469    0.6434    1.9040 C   0  0  0  0  0  0  0  0  0  0  0  0
   -1.3692   -0.6982    1.6237 C   0  0  0  0  0  0  0  0  0  0  0  0
   -0.1489   -1.3855    1.4664 C   0  0  0  0  0  0  0  0  0  0  0  0
    1.1074   -0.7299    1.6038 C   0  0  0  0  0  0  0  0  0  0  0  0
    1.0725    0.6467    1.9161 C   0  0  0  0  0  0  0  0  0  0  0  0
   -0.1163    1.3295    2.0352 C   0  0  0  0  0  0  0  0  0  0  0  0
   -0.1563   -2.7215    1.0810 C   0  0  0  0  0  0  0  0  0  0  0  0
    1.0413   -3.3705    0.8141 C   0  0  0  0  0  0  0  0  0  0  0  0
    2.2509   -2.6312    0.9516 C   0  0  0  0  0  0  0  0  0  0  0  0
    2.2629   -1.3589    1.3584 N   0  0  0  0  0  0  0  0  0  0  0  0
   -1.4015   -3.3651    0.8439 C   0  0  0  0  0  0  0  0  0  0  0  0
   -1.4117   -4.6815    0.3603 C   0  0  0  0  0  0  0  0  0  0  0  0
   -0.2063   -5.3205    0.1872 N   0  0  0  0  0  0  0  0  0  0  0  0
    1.0267   -4.6946    0.3175 C   0  0  0  0  0  0  0  0  0  0  0  0
    2.2132   -5.2768   -0.0510 C   0  0  0  0  0  0  0  0  0  0  0  0
    3.4312   -4.5647    0.0530 C   0  0  0  0  0  0  0  0  0  0  0  0
    3.4415   -3.2850    0.5561 C   0  0  0  0  0  0  0  0  0  0  0  0
   -2.5835   -2.6382    1.0023 C   0  0  0  0  0  0  0  0  0  0  0  0
   -3.7901   -3.2403    0.6648 C   0  0  0  0  0  0  0  0  0  0  0  0
   -3.8224   -4.5493    0.1875 C   0  0  0  0  0  0  0  0  0  0  0  0
   -2.6340   -5.2649    0.0519 C   0  0  0  0  0  0  0  0  0  0  0  0
   -0.1284    2.8491    2.1437 C   0  0  0  0  0  0  0  0  0  0  0  0
   -5.1199   -5.2095   -0.2600 C   0  0  0  0  0  0  0  0  0  0  0  0
    4.6851   -5.2301   -0.5014 C   0  0  0  0  0  0  0  0  0  0  0  0
   -6.3550   -4.3510    0.0253 C   0  0  0  0  0  0  0  0  0  0  0  0
   -5.0383   -5.4386   -1.7771 C   0  0  0  0  0  0  0  0  0  0  0  0
   -5.3028   -6.5566    0.4537 C   0  0  0  0  0  0  0  0  0  0  0  0
    4.5318   -5.3026   -2.0289 C   0  0  0  0  0  0  0  0  0  0  0  0
    5.9605   -4.4456   -0.1837 C   0  0  0  0  0  0  0  0  0  0  0  0
    4.8538   -6.6484    0.0616 C   0  0  0  0  0  0  0  0  0  0  0  0
   -1.3612    3.3757    2.8870 C   0  0  0  0  0  0  0  0  0  0  0  0
   -0.1536    3.3855    0.7022 C   0  0  0  0  0  0  0  0  0  0  0  0
    1.1201    3.3865    2.8509 C   0  0  0  0  0  0  0  0  0  0  0  0
    2.0231    1.1413    2.0109 H   0  0  0  0  0  0  0  0  0  0  0  0
   -2.2853    1.1622    1.9942 H   0  0  0  0  0  0  0  0  0  0  0  0
    4.3478   -2.7109    0.6290 H   0  0  0  0  0  0  0  0  0  0  0  0
    2.2016   -6.2760   -0.4586 H   0  0  0  0  0  0  0  0  0  0  0  0
   -2.6431   -6.2738   -0.3312 H   0  0  0  0  0  0  0  0  0  0  0  0
   -4.6866   -2.6541    0.7561 H   0  0  0  0  0  0  0  0  0  0  0  0
    1.2466    2.9143    3.8213 H   0  0  0  0  0  0  0  0  0  0  0  0
    2.0162    3.2197    2.2605 H   0  0  0  0  0  0  0  0  0  0  0  0
    1.0218    4.4602    2.9993 H   0  0  0  0  0  0  0  0  0  0  0  0
   -1.0383    3.0312    0.1771 H   0  0  0  0  0  0  0  0  0  0  0  0
   -0.1652    4.4734    0.7072 H   0  0  0  0  0  0  0  0  0  0  0  0
    0.7246    3.0484    0.1563 H   0  0  0  0  0  0  0  0  0  0  0  0
   -2.2737    3.2177    2.3183 H   0  0  0  0  0  0  0  0  0  0  0  0
   -1.2603    4.4471    3.0472 H   0  0  0  0  0  0  0  0  0  0  0  0
   -1.4586    2.8955    3.8561 H   0  0  0  0  0  0  0  0  0  0  0  0
    3.6664   -5.8976   -2.3104 H   0  0  0  0  0  0  0  0  0  0  0  0
    5.4169   -5.7522   -2.4740 H   0  0  0  0  0  0  0  0  0  0  0  0
    4.4062   -4.3035   -2.4408 H   0  0  0  0  0  0  0  0  0  0  0  0
    4.0356   -7.3015   -0.2281 H   0  0  0  0  0  0  0  0  0  0  0  0
    5.7754   -7.0858   -0.3167 H   0  0  0  0  0  0  0  0  0  0  0  0
    4.9062   -6.6245    1.1469 H   0  0  0  0  0  0  0  0  0  0  0  0
    6.8231   -4.9845   -0.5710 H   0  0  0  0  0  0  0  0  0  0  0  0
    5.9452   -3.4641   -0.6502 H   0  0  0  0  0  0  0  0  0  0  0  0
    6.0863   -4.3276    0.8887 H   0  0  0  0  0  0  0  0  0  0  0  0
   -5.3267   -6.4168    1.5316 H   0  0  0  0  0  0  0  0  0  0  0  0
   -4.5013   -7.2500    0.2164 H   0  0  0  0  0  0  0  0  0  0  0  0
   -6.2411   -7.0123    0.1457 H   0  0  0  0  0  0  0  0  0  0  0  0
   -4.8914   -4.4921   -2.2928 H   0  0  0  0  0  0  0  0  0  0  0  0
   -4.2136   -6.0976   -2.0345 H   0  0  0  0  0  0  0  0  0  0  0  0
   -5.9607   -5.8888   -2.1368 H   0  0  0  0  0  0  0  0  0  0  0  0
   -6.3183   -3.4147   -0.5259 H   0  0  0  0  0  0  0  0  0  0  0  0
   -6.4488   -4.1379    1.0865 H   0  0  0  0  0  0  0  0  0  0  0  0
   -7.2468   -4.8879   -0.2913 H   0  0  0  0  0  0  0  0  0  0  0  0
   -2.5722   -1.3472    1.4308 O   0  0  0  0  0  0  0  0  0  0  0  0
   -0.2175   -6.2450   -0.2195 H   0  0  0  0  0  0  0  0  0  0  0  0
   -0.9789    2.4942    6.3778 C   0  0  0  0  0  0  0  0  0  0  0  0
   -1.0733    1.2393    5.8343 C   0  0  0  0  0  0  0  0  0  0  0  0
    0.1074    0.5350    5.5285 C   0  0  0  0  0  0  0  0  0  0  0  0
    1.3958    1.0794    5.7861 C   0  0  0  0  0  0  0  0  0  0  0  0
    1.4376    2.3834    6.3348 C   0  0  0  0  0  0  0  0  0  0  0  0
    0.2881    3.0774    6.6224 C   0  0  0  0  0  0  0  0  0  0  0  0
    0.0272   -0.7492    5.0017 C   0  0  0  0  0  0  0  0  0  0  0  0
    1.1865   -1.4704    4.7601 C   0  0  0  0  0  0  0  0  0  0  0  0
    2.4340   -0.8532    5.0606 C   0  0  0  0  0  0  0  0  0  0  0  0
    2.5146    0.3917    5.5466 N   0  0  0  0  0  0  0  0  0  0  0  0
   -1.2491   -1.3331    4.7951 C   0  0  0  0  0  0  0  0  0  0  0  0
   -1.3342   -2.6507    4.3268 C   0  0  0  0  0  0  0  0  0  0  0  0
   -0.1645   -3.3191    4.0562 N   0  0  0  0  0  0  0  0  0  0  0  0
    1.1019   -2.7987    4.2871 C   0  0  0  0  0  0  0  0  0  0  0  0
    2.2617   -3.5174    4.1167 C   0  0  0  0  0  0  0  0  0  0  0  0
    3.5113   -2.9393    4.4219 C   0  0  0  0  0  0  0  0  0  0  0  0
    3.5861   -1.6399    4.8720 C   0  0  0  0  0  0  0  0  0  0  0  0
   -2.3916   -0.5977    5.1221 C   0  0  0  0  0  0  0  0  0  0  0  0
   -3.6320   -1.1968    4.9834 C   0  0  0  0  0  0  0  0  0  0  0  0
   -3.7395   -2.5120    4.5270 C   0  0  0  0  0  0  0  0  0  0  0  0
   -2.5954   -3.2263    4.1889 C   0  0  0  0  0  0  0  0  0  0  0  0
    0.3113    4.4816    7.2093 C   0  0  0  0  0  0  0  0  0  0  0  0
   -5.1262   -3.1359    4.4755 C   0  0  0  0  0  0  0  0  0  0  0  0
    4.7954   -3.7533    4.3374 C   0  0  0  0  0  0  0  0  0  0  0  0
   -6.0685   -2.2371    3.6628 C   0  0  0  0  0  0  0  0  0  0  0  0
   -5.1195   -4.5289    3.8416 C   0  0  0  0  0  0  0  0  0  0  0  0
   -5.6509   -3.2641    5.9134 C   0  0  0  0  0  0  0  0  0  0  0  0
    4.6021   -5.0890    3.6152 C   0  0  0  0  0  0  0  0  0  0  0  0
    5.8720   -2.9557    3.5893 C   0  0  0  0  0  0  0  0  0  0  0  0
    5.2716   -4.0390    5.7698 C   0  0  0  0  0  0  0  0  0  0  0  0
   -0.4058    4.4716    8.5666 C   0  0  0  0  0  0  0  0  0  0  0  0
   -0.4050    5.4381    6.2457 C   0  0  0  0  0  0  0  0  0  0  0  0
    1.7326    5.0069    7.4266 C   0  0  0  0  0  0  0  0  0  0  0  0
    2.4148    2.7943    6.5182 H   0  0  0  0  0  0  0  0  0  0  0  0
   -1.8862    3.0250    6.6149 H   0  0  0  0  0  0  0  0  0  0  0  0
    4.5296   -1.1844    5.1196 H   0  0  0  0  0  0  0  0  0  0  0  0
    2.1955   -4.5315    3.7571 H   0  0  0  0  0  0  0  0  0  0  0  0
   -2.6575   -4.2408    3.8297 H   0  0  0  0  0  0  0  0  0  0  0  0
   -4.5046   -0.6271    5.2543 H   0  0  0  0  0  0  0  0  0  0  0  0
    2.2785    4.3788    8.1261 H   0  0  0  0  0  0  0  0  0  0  0  0
    2.2792    5.0523    6.4880 H   0  0  0  0  0  0  0  0  0  0  0  0
    1.6874    6.0125    7.8405 H   0  0  0  0  0  0  0  0  0  0  0  0
   -1.4396    5.1472    6.0889 H   0  0  0  0  0  0  0  0  0  0  0  0
   -0.3920    6.4502    6.6450 H   0  0  0  0  0  0  0  0  0  0  0  0
    0.0993    5.4394    5.2822 H   0  0  0  0  0  0  0  0  0  0  0  0
   -1.4462    4.1760    8.4665 H   0  0  0  0  0  0  0  0  0  0  0  0
   -0.3756    5.4636    9.0127 H   0  0  0  0  0  0  0  0  0  0  0  0
    0.0837    3.7737    9.2426 H   0  0  0  0  0  0  0  0  0  0  0  0
    3.9501   -5.7534    4.1786 H   0  0  0  0  0  0  0  0  0  0  0  0
    5.5646   -5.5871    3.5087 H   0  0  0  0  0  0  0  0  0  0  0  0
    4.1812   -4.9273    2.6257 H   0  0  0  0  0  0  0  0  0  0  0  0
    4.5240   -4.6172    6.3095 H   0  0  0  0  0  0  0  0  0  0  0  0
    6.2005   -4.6056    5.7514 H   0  0  0  0  0  0  0  0  0  0  0  0
    5.4403   -3.1129    6.3125 H   0  0  0  0  0  0  0  0  0  0  0  0
    6.7401   -3.5841    3.3975 H   0  0  0  0  0  0  0  0  0  0  0  0
    5.4777   -2.5961    2.6431 H   0  0  0  0  0  0  0  0  0  0  0  0
    6.2037   -2.0982    4.1663 H   0  0  0  0  0  0  0  0  0  0  0  0
   -5.7037   -2.2943    6.4001 H   0  0  0  0  0  0  0  0  0  0  0  0
   -4.9934   -3.9029    6.4996 H   0  0  0  0  0  0  0  0  0  0  0  0
   -6.6466   -3.7025    5.9099 H   0  0  0  0  0  0  0  0  0  0  0  0
   -4.6992   -4.4918    2.8396 H   0  0  0  0  0  0  0  0  0  0  0  0
   -4.5468   -5.2307    4.4438 H   0  0  0  0  0  0  0  0  0  0  0  0
   -6.1396   -4.9039    3.7780 H   0  0  0  0  0  0  0  0  0  0  0  0
   -5.6286   -2.0089    2.6960 H   0  0  0  0  0  0  0  0  0  0  0  0
   -6.2638   -1.2999    4.1750 H   0  0  0  0  0  0  0  0  0  0  0  0
   -7.0223   -2.7371    3.5065 H   0  0  0  0  0  0  0  0  0  0  0  0
   -2.3078    0.6738    5.6030 O   0  0  0  0  0  0  0  0  0  0  0  0
   -0.2263   -4.2725    3.7285 H   0  0  0  0  0  0  0  0  0  0  0  0
  1  2  2  0  0  0  0
  1 35  1  0  0  0  0
  2  3  1  0  0  0  0
  3  7  2  0  0  0  0
  3  4  1  0  0  0  0
  4  5  1  0  0  0  0
  5  6  2  0  0  0  0
  5 34  1  0  0  0  0
  6  1  1  0  0  0  0
  6 22  1  0  0  0  0
  7  8  1  0  0  0  0
  8  9  1  0  0  0  0
 10  4  2  0  0  0  0
 10  9  1  0  0  0  0
 11 12  2  0  0  0  0
 11 18  1  0  0  0  0
 11  7  1  0  0  0  0
 12 13  1  0  0  0  0
 13 14  1  0  0  0  0
 13 68  1  0  0  0  0
 14  8  2  0  0  0  0
 14 15  1  0  0  0  0
 15 16  2  0  0  0  0
 15 37  1  0  0  0  0
 16 24  1  0  0  0  0
 17  9  2  0  0  0  0
 17 36  1  0  0  0  0
 17 16  1  0  0  0  0
 18 19  2  0  0  0  0
 18 67  1  0  0  0  0
 19 20  1  0  0  0  0
 19 39  1  0  0  0  0
 20 21  2  0  0  0  0
 20 23  1  0  0  0  0
 21 12  1  0  0  0  0
 21 38  1  0  0  0  0
 22 31  1  0  0  0  0
 22 32  1  0  0  0  0
 22 33  1  0  0  0  0
 23 25  1  0  0  0  0
 23 26  1  0  0  0  0
 23 27  1  0  0  0  0
 24 28  1  0  0  0  0
 24 29  1  0  0  0  0
 24 30  1  0  0  0  0
 25 64  1  0  0  0  0
 25 65  1  0  0  0  0
 25 66  1  0  0  0  0
 26 61  1  0  0  0  0
 26 62  1  0  0  0  0
 26 63  1  0  0  0  0
 27 58  1  0  0  0  0
 27 59  1  0  0  0  0
 27 60  1  0  0  0  0
 28 49  1  0  0  0  0
 28 50  1  0  0  0  0
 28 51  1  0  0  0  0
 29 55  1  0  0  0  0
 29 56  1  0  0  0  0
 29 57  1  0  0  0  0
 30 52  1  0  0  0  0
 30 53  1  0  0  0  0
 30 54  1  0  0  0  0
 31 46  1  0  0  0  0
 31 47  1  0  0  0  0
 31 48  1  0  0  0  0
 32 43  1  0  0  0  0
 32 44  1  0  0  0  0
 32 45  1  0  0  0  0
 33 40  1  0  0  0  0
 33 41  1  0  0  0  0
 33 42  1  0  0  0  0
 67  2  1  0  0  0  0
 69 70  2  0  0  0  0
 69103  1  0  0  0  0
 70 71  1  0  0  0  0
 71 75  2  0  0  0  0
 71 72  1  0  0  0  0
 72 73  1  0  0  0  0
 73 74  2  0  0  0  0
 73102  1  0  0  0  0
 74 69  1  0  0  0  0
 74 90  1  0  0  0  0
 75 76  1  0  0  0  0
 76 77  1  0  0  0  0
 78 72  2  0  0  0  0
 78 77  1  0  0  0  0
 79 80  2  0  0  0  0
 79 86  1  0  0  0  0
 79 75  1  0  0  0  0
 80 81  1  0  0  0  0
 81 82  1  0  0  0  0
 81136  1  0  0  0  0
 82 76  2  0  0  0  0
 82 83  1  0  0  0  0
 83 84  2  0  0  0  0
 83105  1  0  0  0  0
 84 92  1  0  0  0  0
 85 77  2  0  0  0  0
 85104  1  0  0  0  0
 85 84  1  0  0  0  0
 86 87  2  0  0  0  0
 86135  1  0  0  0  0
 87 88  1  0  0  0  0
 87107  1  0  0  0  0
 88 89  2  0  0  0  0
 88 91  1  0  0  0  0
 89 80  1  0  0  0  0
 89106  1  0  0  0  0
 90 99  1  0  0  0  0
 90100  1  0  0  0  0
 90101  1  0  0  0  0
 91 93  1  0  0  0  0
 91 94  1  0  0  0  0
 91 95  1  0  0  0  0
 92 96  1  0  0  0  0
 92 97  1  0  0  0  0
 92 98  1  0  0  0  0
 93132  1  0  0  0  0
 93133  1  0  0  0  0
 93134  1  0  0  0  0
 94129  1  0  0  0  0
 94130  1  0  0  0  0
 94131  1  0  0  0  0
 95126  1  0  0  0  0
 95127  1  0  0  0  0
 95128  1  0  0  0  0
 96117  1  0  0  0  0
 96118  1  0  0  0  0
 96119  1  0  0  0  0
 97123  1  0  0  0  0
 97124  1  0  0  0  0
 97125  1  0  0  0  0
 98120  1  0  0  0  0
 98121  1  0  0  0  0
 98122  1  0  0  0  0
 99114  1  0  0  0  0
 99115  1  0  0  0  0
 99116  1  0  0  0  0
100111  1  0  0  0  0
100112  1  0  0  0  0
100113  1  0  0  0  0
101108  1  0  0  0  0
101109  1  0  0  0  0
101110  1  0  0  0  0
135 70  1  0  0  0  0
M  END
