 energy: -25.203811141265 gnorm: 0.000319839748 xtb: 6.7.1 (edcfbbe)
          02282512273D

134144  0     0  0            999 V2000
   -1.0219    1.9140   -0.0089 C   0  0  0  0  0  0  0  0  0  0  0  0
   -1.0952    0.5258    0.0385 C   0  0  0  0  0  0  0  0  0  0  0  0
    0.1199   -0.1918    0.0886 C   0  0  0  0  0  0  0  0  0  0  0  0
    1.3777    0.4533    0.0888 C   0  0  0  0  0  0  0  0  0  0  0  0
    1.3717    1.8565    0.0399 C   0  0  0  0  0  0  0  0  0  0  0  0
    0.1986    2.5894   -0.0188 C   0  0  0  0  0  0  0  0  0  0  0  0
    0.0799   -1.5853    0.1080 C   0  0  0  0  0  0  0  0  0  0  0  0
    1.2659   -2.3024    0.1172 C   0  0  0  0  0  0  0  0  0  0  0  0
    2.4929   -1.5920    0.1125 C   0  0  0  0  0  0  0  0  0  0  0  0
    2.5496   -0.2351    0.1056 N   0  0  0  0  0  0  0  0  0  0  0  0
   -1.1353   -2.2675    0.0716 C   0  0  0  0  0  0  0  0  0  0  0  0
   -1.1222   -3.6809    0.0546 C   0  0  0  0  0  0  0  0  0  0  0  0
    0.0317   -4.3991    0.0749 N   0  0  0  0  0  0  0  0  0  0  0  0
    1.2073   -3.7191    0.0978 C   0  0  0  0  0  0  0  0  0  0  0  0
    2.4290   -4.4063    0.0729 C   0  0  0  0  0  0  0  0  0  0  0  0
    3.6513   -3.7446    0.0588 C   0  0  0  0  0  0  0  0  0  0  0  0
    3.6676   -2.3558    0.0854 C   0  0  0  0  0  0  0  0  0  0  0  0
   -2.3346   -1.5242    0.0184 C   0  0  0  0  0  0  0  0  0  0  0  0
   -3.5292   -2.2331   -0.0548 C   0  0  0  0  0  0  0  0  0  0  0  0
   -3.5600   -3.6274   -0.0868 C   0  0  0  0  0  0  0  0  0  0  0  0
   -2.3669   -4.3267   -0.0196 C   0  0  0  0  0  0  0  0  0  0  0  0
    0.2757    4.1211   -0.1096 C   0  0  0  0  0  0  0  0  0  0  0  0
   -4.8783   -4.4051   -0.2208 C   0  0  0  0  0  0  0  0  0  0  0  0
    4.9852   -4.5041   -0.0162 C   0  0  0  0  0  0  0  0  0  0  0  0
   -6.0902   -3.4611   -0.3409 C   0  0  0  0  0  0  0  0  0  0  0  0
   -5.0750   -5.2890    1.0217 C   0  0  0  0  0  0  0  0  0  0  0  0
   -4.8238   -5.2853   -1.4831 C   0  0  0  0  0  0  0  0  0  0  0  0
    5.7174   -4.1158   -1.3136 C   0  0  0  0  0  0  0  0  0  0  0  0
    5.8511   -4.1328    1.1999 C   0  0  0  0  0  0  0  0  0  0  0  0
    4.7769   -6.0308   -0.0128 C   0  0  0  0  0  0  0  0  0  0  0  0
   -1.1223    4.7590   -0.2243 C   0  0  0  0  0  0  0  0  0  0  0  0
    0.9555    4.6689    1.1562 C   0  0  0  0  0  0  0  0  0  0  0  0
    1.0919    4.5181   -1.3535 C   0  0  0  0  0  0  0  0  0  0  0  0
    2.3207    2.3590    0.0374 H   0  0  0  0  0  0  0  0  0  0  0  0
   -1.9483    2.4536   -0.0492 H   0  0  0  0  0  0  0  0  0  0  0  0
    4.6035   -1.8294    0.0699 H   0  0  0  0  0  0  0  0  0  0  0  0
    2.3881   -5.4785    0.0521 H   0  0  0  0  0  0  0  0  0  0  0  0
   -2.3708   -5.4004   -0.0386 H   0  0  0  0  0  0  0  0  0  0  0  0
   -4.4366   -1.6627   -0.0994 H   0  0  0  0  0  0  0  0  0  0  0  0
    0.6386    4.1100   -2.2564 H   0  0  0  0  0  0  0  0  0  0  0  0
    1.1391    5.6015   -1.4595 H   0  0  0  0  0  0  0  0  0  0  0  0
    2.1134    4.1456   -1.2944 H   0  0  0  0  0  0  0  0  0  0  0  0
    1.0241    5.7559    1.1250 H   0  0  0  0  0  0  0  0  0  0  0  0
    1.9636    4.2725    1.2696 H   0  0  0  0  0  0  0  0  0  0  0  0
    0.3831    4.3912    2.0397 H   0  0  0  0  0  0  0  0  0  0  0  0
   -1.7307    4.5313    0.6504 H   0  0  0  0  0  0  0  0  0  0  0  0
   -1.0469    5.8436   -0.2985 H   0  0  0  0  0  0  0  0  0  0  0  0
   -1.6437    4.4033   -1.1124 H   0  0  0  0  0  0  0  0  0  0  0  0
    5.9359   -3.0492   -1.3409 H   0  0  0  0  0  0  0  0  0  0  0  0
    5.1082   -4.3545   -2.1848 H   0  0  0  0  0  0  0  0  0  0  0  0
    6.6616   -4.6520   -1.4043 H   0  0  0  0  0  0  0  0  0  0  0  0
    4.1901   -6.3492   -0.8740 H   0  0  0  0  0  0  0  0  0  0  0  0
    5.7334   -6.5511   -0.0569 H   0  0  0  0  0  0  0  0  0  0  0  0
    4.2672   -6.3549    0.8941 H   0  0  0  0  0  0  0  0  0  0  0  0
    6.0769   -3.0677    1.2195 H   0  0  0  0  0  0  0  0  0  0  0  0
    6.7966   -4.6742    1.1876 H   0  0  0  0  0  0  0  0  0  0  0  0
    5.3298   -4.3822    2.1222 H   0  0  0  0  0  0  0  0  0  0  0  0
   -4.6538   -4.6749   -2.3696 H   0  0  0  0  0  0  0  0  0  0  0  0
   -4.0205   -6.0180   -1.4224 H   0  0  0  0  0  0  0  0  0  0  0  0
   -5.7586   -5.8279   -1.6209 H   0  0  0  0  0  0  0  0  0  0  0  0
   -6.0004   -5.8603    0.9535 H   0  0  0  0  0  0  0  0  0  0  0  0
   -5.1248   -4.6718    1.9169 H   0  0  0  0  0  0  0  0  0  0  0  0
   -4.2539   -5.9942    1.1430 H   0  0  0  0  0  0  0  0  0  0  0  0
   -6.1891   -2.8345    0.5451 H   0  0  0  0  0  0  0  0  0  0  0  0
   -5.9996   -2.8160   -1.2142 H   0  0  0  0  0  0  0  0  0  0  0  0
   -7.0138   -4.0299   -0.4455 H   0  0  0  0  0  0  0  0  0  0  0  0
   -2.3215   -0.1323    0.0171 O   0  0  0  0  0  0  0  0  0  0  0  0
   -1.0375    1.9170    6.1233 C   0  0  0  0  0  0  0  0  0  0  0  0
   -1.1079    0.5280    6.0853 C   0  0  0  0  0  0  0  0  0  0  0  0
    0.1089   -0.1881    6.0980 C   0  0  0  0  0  0  0  0  0  0  0  0
    1.3646    0.4583    6.1552 C   0  0  0  0  0  0  0  0  0  0  0  0
    1.3554    1.8615    6.1975 C   0  0  0  0  0  0  0  0  0  0  0  0
    0.1810    2.5942    6.1813 C   0  0  0  0  0  0  0  0  0  0  0  0
    0.0719   -1.5817    6.0840 C   0  0  0  0  0  0  0  0  0  0  0  0
    1.2583   -2.2969    6.1288 C   0  0  0  0  0  0  0  0  0  0  0  0
    2.4828   -1.5846    6.1839 C   0  0  0  0  0  0  0  0  0  0  0  0
    2.5371   -0.2279    6.1937 N   0  0  0  0  0  0  0  0  0  0  0  0
   -1.1425   -2.2660    6.0651 C   0  0  0  0  0  0  0  0  0  0  0  0
   -1.1272   -3.6792    6.0890 C   0  0  0  0  0  0  0  0  0  0  0  0
    0.0273   -4.3954    6.1253 N   0  0  0  0  0  0  0  0  0  0  0  0
    1.2014   -3.7136    6.1479 C   0  0  0  0  0  0  0  0  0  0  0  0
    2.4223   -4.3987    6.2205 C   0  0  0  0  0  0  0  0  0  0  0  0
    3.6421   -3.7351    6.2805 C   0  0  0  0  0  0  0  0  0  0  0  0
    3.6568   -2.3462    6.2580 C   0  0  0  0  0  0  0  0  0  0  0  0
   -2.3443   -1.5249    6.0528 C   0  0  0  0  0  0  0  0  0  0  0  0
   -3.5394   -2.2371    6.0565 C   0  0  0  0  0  0  0  0  0  0  0  0
   -3.5688   -3.6318    6.0808 C   0  0  0  0  0  0  0  0  0  0  0  0
   -2.3722   -4.3277    6.0985 C   0  0  0  0  0  0  0  0  0  0  0  0
    0.2527    4.1258    6.2776 C   0  0  0  0  0  0  0  0  0  0  0  0
   -4.8906   -4.4131    6.1329 C   0  0  0  0  0  0  0  0  0  0  0  0
    4.9726   -4.4924    6.4124 C   0  0  0  0  0  0  0  0  0  0  0  0
   -6.1088   -3.4859    5.9581 C   0  0  0  0  0  0  0  0  0  0  0  0
   -5.0030   -5.1217    7.4940 C   0  0  0  0  0  0  0  0  0  0  0  0
   -4.9152   -5.4578    5.0025 C   0  0  0  0  0  0  0  0  0  0  0  0
    5.9077   -4.0908    5.2582 C   0  0  0  0  0  0  0  0  0  0  0  0
    5.6262   -4.1319    7.7585 C   0  0  0  0  0  0  0  0  0  0  0  0
    4.7701   -6.0191    6.3601 C   0  0  0  0  0  0  0  0  0  0  0  0
   -1.1349    4.7738    6.1074 C   0  0  0  0  0  0  0  0  0  0  0  0
    0.8120    4.5163    7.6568 C   0  0  0  0  0  0  0  0  0  0  0  0
    1.1762    4.6696    5.1724 C   0  0  0  0  0  0  0  0  0  0  0  0
    2.3025    2.3635    6.2602 H   0  0  0  0  0  0  0  0  0  0  0  0
   -1.9651    2.4560    6.1183 H   0  0  0  0  0  0  0  0  0  0  0  0
    4.5901   -1.8180    6.3140 H   0  0  0  0  0  0  0  0  0  0  0  0
    2.3821   -5.4709    6.2402 H   0  0  0  0  0  0  0  0  0  0  0  0
   -2.3740   -5.4009    6.1356 H   0  0  0  0  0  0  0  0  0  0  0  0
   -4.4495   -1.6691    6.0506 H   0  0  0  0  0  0  0  0  0  0  0  0
    0.8237    4.3510    4.1935 H   0  0  0  0  0  0  0  0  0  0  0  0
    1.2020    5.7589    5.1855 H   0  0  0  0  0  0  0  0  0  0  0  0
    2.1980    4.3130    5.2921 H   0  0  0  0  0  0  0  0  0  0  0  0
    0.8684    5.5993    7.7632 H   0  0  0  0  0  0  0  0  0  0  0  0
    1.8129    4.1126    7.8039 H   0  0  0  0  0  0  0  0  0  0  0  0
    0.1761    4.1307    8.4531 H   0  0  0  0  0  0  0  0  0  0  0  0
   -1.8130    4.4672    6.9031 H   0  0  0  0  0  0  0  0  0  0  0  0
   -1.0608    5.8605    6.1423 H   0  0  0  0  0  0  0  0  0  0  0  0
   -1.5782    4.5027    5.1496 H   0  0  0  0  0  0  0  0  0  0  0  0
    6.1354   -3.0262    5.2794 H   0  0  0  0  0  0  0  0  0  0  0  0
    5.4424   -4.3149    4.3004 H   0  0  0  0  0  0  0  0  0  0  0  0
    6.8508   -4.6341    5.3116 H   0  0  0  0  0  0  0  0  0  0  0  0
    4.3054   -6.3205    5.4217 H   0  0  0  0  0  0  0  0  0  0  0  0
    5.7251   -6.5381    6.4371 H   0  0  0  0  0  0  0  0  0  0  0  0
    4.1440   -6.3611    7.1836 H   0  0  0  0  0  0  0  0  0  0  0  0
    5.8359   -3.0650    7.8224 H   0  0  0  0  0  0  0  0  0  0  0  0
    6.5666   -4.6658    7.8914 H   0  0  0  0  0  0  0  0  0  0  0  0
    4.9687   -4.3932    8.5871 H   0  0  0  0  0  0  0  0  0  0  0  0
   -4.7671   -4.9748    4.0389 H   0  0  0  0  0  0  0  0  0  0  0  0
   -4.1303   -6.2021    5.1270 H   0  0  0  0  0  0  0  0  0  0  0  0
   -5.8692   -5.9837    4.9762 H   0  0  0  0  0  0  0  0  0  0  0  0
   -5.9350   -5.6814    7.5671 H   0  0  0  0  0  0  0  0  0  0  0  0
   -4.9781   -4.3978    8.3080 H   0  0  0  0  0  0  0  0  0  0  0  0
   -4.1803   -5.8199    7.6429 H   0  0  0  0  0  0  0  0  0  0  0  0
   -6.1722   -2.7617    6.7696 H   0  0  0  0  0  0  0  0  0  0  0  0
   -6.0562   -2.9452    5.0134 H   0  0  0  0  0  0  0  0  0  0  0  0
   -7.0350   -4.0600    5.9599 H   0  0  0  0  0  0  0  0  0  0  0  0
   -2.3330   -0.1327    6.0536 O   0  0  0  0  0  0  0  0  0  0  0  0
  1  2  2  0  0  0  0
  1 35  1  0  0  0  0
  2  3  1  0  0  0  0
  3  4  2  0  0  0  0
  3  7  1  0  0  0  0
  4  5  1  0  0  0  0
  5  6  2  0  0  0  0
  5 34  1  0  0  0  0
  6  1  1  0  0  0  0
  6 22  1  0  0  0  0
  7 11  2  0  0  0  0
  8  7  1  0  0  0  0
  8  9  1  0  0  0  0
  9 10  2  0  0  0  0
 10  4  1  0  0  0  0
 11 12  1  0  0  0  0
 11 18  1  0  0  0  0
 12 13  2  0  0  0  0
 13 14  1  0  0  0  0
 14  8  1  0  0  0  0
 14 15  2  0  0  0  0
 15 16  1  0  0  0  0
 15 37  1  0  0  0  0
 16 17  2  0  0  0  0
 16 24  1  0  0  0  0
 17  9  1  0  0  0  0
 17 36  1  0  0  0  0
 18 19  2  0  0  0  0
 18 67  1  0  0  0  0
 19 20  1  0  0  0  0
 19 39  1  0  0  0  0
 20 21  2  0  0  0  0
 20 23  1  0  0  0  0
 21 12  1  0  0  0  0
 21 38  1  0  0  0  0
 22 31  1  0  0  0  0
 22 32  1  0  0  0  0
 22 33  1  0  0  0  0
 23 25  1  0  0  0  0
 23 26  1  0  0  0  0
 23 27  1  0  0  0  0
 24 28  1  0  0  0  0
 24 29  1  0  0  0  0
 24 30  1  0  0  0  0
 25 64  1  0  0  0  0
 25 65  1  0  0  0  0
 25 66  1  0  0  0  0
 26 61  1  0  0  0  0
 26 62  1  0  0  0  0
 26 63  1  0  0  0  0
 27 58  1  0  0  0  0
 27 59  1  0  0  0  0
 27 60  1  0  0  0  0
 28 49  1  0  0  0  0
 28 50  1  0  0  0  0
 28 51  1  0  0  0  0
 29 55  1  0  0  0  0
 29 56  1  0  0  0  0
 29 57  1  0  0  0  0
 30 52  1  0  0  0  0
 30 53  1  0  0  0  0
 30 54  1  0  0  0  0
 31 46  1  0  0  0  0
 31 47  1  0  0  0  0
 31 48  1  0  0  0  0
 32 43  1  0  0  0  0
 32 44  1  0  0  0  0
 32 45  1  0  0  0  0
 33 40  1  0  0  0  0
 33 41  1  0  0  0  0
 33 42  1  0  0  0  0
 67  2  1  0  0  0  0
 68 69  2  0  0  0  0
 68102  1  0  0  0  0
 69 70  1  0  0  0  0
 70 71  2  0  0  0  0
 70 74  1  0  0  0  0
 71 72  1  0  0  0  0
 72 73  2  0  0  0  0
 72101  1  0  0  0  0
 73 68  1  0  0  0  0
 73 89  1  0  0  0  0
 74 78  2  0  0  0  0
 75 74  1  0  0  0  0
 75 76  1  0  0  0  0
 76 77  2  0  0  0  0
 77 71  1  0  0  0  0
 78 79  1  0  0  0  0
 78 85  1  0  0  0  0
 79 80  2  0  0  0  0
 80 81  1  0  0  0  0
 81 75  1  0  0  0  0
 81 82  2  0  0  0  0
 82 83  1  0  0  0  0
 82104  1  0  0  0  0
 83 84  2  0  0  0  0
 83 91  1  0  0  0  0
 84 76  1  0  0  0  0
 84103  1  0  0  0  0
 85 86  2  0  0  0  0
 85134  1  0  0  0  0
 86 87  1  0  0  0  0
 86106  1  0  0  0  0
 87 88  2  0  0  0  0
 87 90  1  0  0  0  0
 88 79  1  0  0  0  0
 88105  1  0  0  0  0
 89 98  1  0  0  0  0
 89 99  1  0  0  0  0
 89100  1  0  0  0  0
 90 92  1  0  0  0  0
 90 93  1  0  0  0  0
 90 94  1  0  0  0  0
 91 95  1  0  0  0  0
 91 96  1  0  0  0  0
 91 97  1  0  0  0  0
 92131  1  0  0  0  0
 92132  1  0  0  0  0
 92133  1  0  0  0  0
 93128  1  0  0  0  0
 93129  1  0  0  0  0
 93130  1  0  0  0  0
 94125  1  0  0  0  0
 94126  1  0  0  0  0
 94127  1  0  0  0  0
 95116  1  0  0  0  0
 95117  1  0  0  0  0
 95118  1  0  0  0  0
 96122  1  0  0  0  0
 96123  1  0  0  0  0
 96124  1  0  0  0  0
 97119  1  0  0  0  0
 97120  1  0  0  0  0
 97121  1  0  0  0  0
 98113  1  0  0  0  0
 98114  1  0  0  0  0
 98115  1  0  0  0  0
 99110  1  0  0  0  0
 99111  1  0  0  0  0
 99112  1  0  0  0  0
100107  1  0  0  0  0
100108  1  0  0  0  0
100109  1  0  0  0  0
134 69  1  0  0  0  0
M  END
