 xtb: 6.7.1 (edcfbbe)
          12022411583D

 55 59  0     0  0            999 V2000
   -2.5492    2.2938   -1.4579 C   0  0  0  0  0  0  0  0  0  0  0  0
   -2.2499    1.0806   -0.8593 C   0  0  0  0  0  0  0  0  0  0  0  0
   -1.1675    0.9860    0.0418 C   0  0  0  0  0  0  0  0  0  0  0  0
   -0.2310    2.0700    0.1206 C   0  0  0  0  0  0  0  0  0  0  0  0
   -0.5859    3.3166   -0.4709 C   0  0  0  0  0  0  0  0  0  0  0  0
   -1.7304    3.3764   -1.1882 C   0  0  0  0  0  0  0  0  0  0  0  0
   -0.8788   -0.1517    0.8619 C   0  0  0  0  0  0  0  0  0  0  0  0
    0.4482   -0.3074    1.2905 C   0  0  0  0  0  0  0  0  0  0  0  0
    1.3571    0.7908    1.1678 C   0  0  0  0  0  0  0  0  0  0  0  0
    0.9581    1.9787    0.7019 N   0  0  0  0  0  0  0  0  0  0  0  0
   -1.8140   -1.1529    1.2664 C   0  0  0  0  0  0  0  0  0  0  0  0
   -1.2611   -2.4098    1.6698 C   0  0  0  0  0  0  0  0  0  0  0  0
    0.0309   -2.6067    1.9000 N   0  0  0  0  0  0  0  0  0  0  0  0
    0.8622   -1.5612    1.8414 C   0  0  0  0  0  0  0  0  0  0  0  0
    2.2021   -1.6978    2.2569 C   0  0  0  0  0  0  0  0  0  0  0  0
    3.0205   -0.6107    2.1238 C   0  0  0  0  0  0  0  0  0  0  0  0
    2.6810    0.6131    1.6159 C   0  0  0  0  0  0  0  0  0  0  0  0
   -3.2177   -0.9483    1.3285 C   0  0  0  0  0  0  0  0  0  0  0  0
   -4.0535   -2.0410    1.5075 C   0  0  0  0  0  0  0  0  0  0  0  0
   -3.4686   -3.2818    1.7051 C   0  0  0  0  0  0  0  0  0  0  0  0
   -2.1449   -3.5170    1.8325 C   0  0  0  0  0  0  0  0  0  0  0  0
   -3.6479    0.3254    1.3041 O   0  0  0  0  0  0  0  0  0  0  0  0
   -3.0216    0.0022   -1.2208 O   0  0  0  0  0  0  0  0  0  0  0  0
    0.0754    4.1561   -0.3555 H   0  0  0  0  0  0  0  0  0  0  0  0
   -3.3862    2.3795   -2.1270 H   0  0  0  0  0  0  0  0  0  0  0  0
    3.3866    1.4190    1.5418 H   0  0  0  0  0  0  0  0  0  0  0  0
    2.5453   -2.6269    2.6711 H   0  0  0  0  0  0  0  0  0  0  0  0
   -1.7404   -4.4834    2.0693 H   0  0  0  0  0  0  0  0  0  0  0  0
   -5.1235   -1.9560    1.5167 H   0  0  0  0  0  0  0  0  0  0  0  0
   -5.0321    0.5808    1.2247 C   0  0  0  0  0  0  0  0  0  0  0  0
   -2.3407   -1.0334   -1.9042 C   0  0  0  0  0  0  0  0  0  0  0  0
   -2.2254    4.9959   -1.9354 S   0  0  0  0  0  0  0  0  0  0  0  0
   -3.8265    4.8194   -1.4705 F   0  0  0  0  0  0  0  0  0  0  0  0
   -1.9149    5.8513   -0.5346 F   0  0  0  0  0  0  0  0  0  0  0  0
   -2.6779    6.4193   -2.5905 F   0  0  0  0  0  0  0  0  0  0  0  0
   -2.5942    4.3149   -3.4225 F   0  0  0  0  0  0  0  0  0  0  0  0
   -0.6861    5.3422   -2.4854 F   0  0  0  0  0  0  0  0  0  0  0  0
   -4.6375   -4.7078    1.8506 S   0  0  0  0  0  0  0  0  0  0  0  0
   -5.6856   -3.8823    2.8692 F   0  0  0  0  0  0  0  0  0  0  0  0
   -5.5480   -4.2055    0.5321 F   0  0  0  0  0  0  0  0  0  0  0  0
   -5.6797   -5.9571    1.9612 F   0  0  0  0  0  0  0  0  0  0  0  0
   -3.7274   -5.6825    0.8433 F   0  0  0  0  0  0  0  0  0  0  0  0
   -3.8653   -5.3588    3.1795 F   0  0  0  0  0  0  0  0  0  0  0  0
    4.7749   -0.8186    2.6857 S   0  0  0  0  0  0  0  0  0  0  0  0
    5.4119   -0.1068    1.3079 F   0  0  0  0  0  0  0  0  0  0  0  0
    4.9397   -2.3259    1.9706 F   0  0  0  0  0  0  0  0  0  0  0  0
    6.3222   -1.0029    3.1793 F   0  0  0  0  0  0  0  0  0  0  0  0
    4.8186    0.6638    3.4655 F   0  0  0  0  0  0  0  0  0  0  0  0
    4.3396   -1.5554    4.1269 F   0  0  0  0  0  0  0  0  0  0  0  0
   -3.0653   -1.8367   -2.0254 H   0  0  0  0  0  0  0  0  0  0  0  0
   -1.4807   -1.4071   -1.3430 H   0  0  0  0  0  0  0  0  0  0  0  0
   -2.0053   -0.6857   -2.8872 H   0  0  0  0  0  0  0  0  0  0  0  0
   -5.1205    1.6624    1.1361 H   0  0  0  0  0  0  0  0  0  0  0  0
   -5.5532    0.2391    2.1242 H   0  0  0  0  0  0  0  0  0  0  0  0
   -5.4652    0.1060    0.3410 H   0  0  0  0  0  0  0  0  0  0  0  0
  1  2  4  0  0  0  0
  2  3  4  0  0  0  0
  3  4  4  0  0  0  0
  4  5  4  0  0  0  0
  1  6  4  0  0  0  0
  5  6  2  0  0  0  0
  3  7  1  0  0  0  0
  7  8  4  0  0  0  0
  8  9  1  0  0  0  0
  4 10  4  0  0  0  0
  9 10  4  0  0  0  0
  7 11  4  0  0  0  0
 11 12  4  0  0  0  0
 12 13  4  0  0  0  0
  8 14  1  0  0  0  0
 13 14  4  0  0  0  0
 14 15  4  0  0  0  0
 15 16  4  0  0  0  0
  9 17  4  0  0  0  0
 16 17  4  0  0  0  0
 11 18  4  0  0  0  0
 18 19  4  0  0  0  0
 19 20  4  0  0  0  0
 12 21  1  0  0  0  0
 20 21  2  0  0  0  0
 18 22  1  0  0  0  0
  2 23  1  0  0  0  0
  5 24  1  0  0  0  0
  1 25  1  0  0  0  0
 17 26  1  0  0  0  0
 15 27  1  0  0  0  0
 21 28  1  0  0  0  0
 19 29  1  0  0  0  0
 22 30  1  0  0  0  0
 23 31  1  0  0  0  0
  6 32  1  0  0  0  0
 32 33  1  0  0  0  0
 32 34  1  0  0  0  0
 32 35  1  0  0  0  0
 32 36  1  0  0  0  0
 32 37  1  0  0  0  0
 20 38  1  0  0  0  0
 38 39  1  0  0  0  0
 38 40  1  0  0  0  0
 38 41  1  0  0  0  0
 38 42  1  0  0  0  0
 38 43  1  0  0  0  0
 16 44  1  0  0  0  0
 44 45  1  0  0  0  0
 44 46  1  0  0  0  0
 44 47  1  0  0  0  0
 44 48  1  0  0  0  0
 44 49  1  0  0  0  0
 31 50  1  0  0  0  0
 31 51  1  0  0  0  0
 31 52  1  0  0  0  0
 30 53  1  0  0  0  0
 30 54  1  0  0  0  0
 30 55  1  0  0  0  0
M  CHG  1   1  -1
M  END
