xtb: 6.7.1 (edcfbbe)_xtb: 6.7.1 (edcfbbe)
 OpenBabel12022411593D

110118  0  0  0  0  0  0  0  0999 V2000
   -2.3163    2.1709   -1.6071 C   0  0  0  0  0  0  0  0  0  0  0  0
   -2.0607    0.9636   -0.9712 C   0  0  0  0  0  0  0  0  0  0  0  0
   -1.0365    0.9088    0.0144 C   0  0  0  0  0  0  0  0  0  0  0  0
   -0.1239    2.0082    0.1272 C   0  0  0  0  0  0  0  0  0  0  0  0
   -0.4317    3.2383   -0.5175 C   0  0  0  0  0  0  0  0  0  0  0  0
   -1.5227    3.2719   -1.3187 C   0  0  0  0  0  0  0  0  0  0  0  0
   -0.7785   -0.2258    0.8446 C   0  0  0  0  0  0  0  0  0  0  0  0
    0.5274   -0.3494    1.3507 C   0  0  0  0  0  0  0  0  0  0  0  0
    1.4193    0.7623    1.2780 C   0  0  0  0  0  0  0  0  0  0  0  0
    1.0364    1.9294    0.7716 N   0  0  0  0  0  0  0  0  0  0  0  0
   -1.7064   -1.2481    1.2154 C   0  0  0  0  0  0  0  0  0  0  0  0
   -1.1488   -2.4855    1.6758 C   0  0  0  0  0  0  0  0  0  0  0  0
    0.1371   -2.6389    1.9776 N   0  0  0  0  0  0  0  0  0  0  0  0
    0.9448   -1.5853    1.9292 C   0  0  0  0  0  0  0  0  0  0  0  0
    2.2736   -1.6946    2.4068 C   0  0  0  0  0  0  0  0  0  0  0  0
    3.0891   -0.5939    2.3355 C   0  0  0  0  0  0  0  0  0  0  0  0
    2.7232    0.6204    1.8123 C   0  0  0  0  0  0  0  0  0  0  0  0
   -3.1174   -1.0728    1.2543 C   0  0  0  0  0  0  0  0  0  0  0  0
   -3.9257   -2.1780    1.4836 C   0  0  0  0  0  0  0  0  0  0  0  0
   -3.3371   -3.4086    1.7368 C   0  0  0  0  0  0  0  0  0  0  0  0
   -2.0043   -3.6044    1.8743 C   0  0  0  0  0  0  0  0  0  0  0  0
   -3.5829    0.1772    1.1367 O   0  0  0  0  0  0  0  0  0  0  0  0
   -2.6757   -0.1847   -1.2802 O   0  0  0  0  0  0  0  0  0  0  0  0
    0.2214    4.0819   -0.3825 H   0  0  0  0  0  0  0  0  0  0  0  0
   -3.1089    2.2808   -2.3251 H   0  0  0  0  0  0  0  0  0  0  0  0
    3.3994    1.4576    1.7903 H   0  0  0  0  0  0  0  0  0  0  0  0
    2.6136   -2.6290    2.8192 H   0  0  0  0  0  0  0  0  0  0  0  0
   -1.5785   -4.5494    2.1609 H   0  0  0  0  0  0  0  0  0  0  0  0
   -4.9987   -2.1114    1.4796 H   0  0  0  0  0  0  0  0  0  0  0  0
   -4.9732    0.4137    1.2593 C   0  0  0  0  0  0  0  0  0  0  0  0
   -3.6292   -0.2005   -2.3264 C   0  0  0  0  0  0  0  0  0  0  0  0
   -1.9867    4.8547   -2.1491 S   0  0  0  0  0  0  0  0  0  0  0  0
   -3.5989    4.6241   -1.7962 F   0  0  0  0  0  0  0  0  0  0  0  0
   -1.8053    5.7214   -0.7519 F   0  0  0  0  0  0  0  0  0  0  0  0
   -2.4184    6.2264   -2.8722 F   0  0  0  0  0  0  0  0  0  0  0  0
   -2.2183    4.0990   -3.6132 F   0  0  0  0  0  0  0  0  0  0  0  0
   -0.4251    5.1951   -2.5692 F   0  0  0  0  0  0  0  0  0  0  0  0
   -4.4869   -4.8377    1.9516 S   0  0  0  0  0  0  0  0  0  0  0  0
   -5.5030   -3.9603    2.9345 F   0  0  0  0  0  0  0  0  0  0  0  0
   -5.3922   -4.3720    0.6325 F   0  0  0  0  0  0  0  0  0  0  0  0
   -5.5071   -6.0712    2.1213 F   0  0  0  0  0  0  0  0  0  0  0  0
   -3.5695   -5.8111    0.9785 F   0  0  0  0  0  0  0  0  0  0  0  0
   -3.6814   -5.3997    3.2811 F   0  0  0  0  0  0  0  0  0  0  0  0
    4.8142   -0.7610    2.9912 S   0  0  0  0  0  0  0  0  0  0  0  0
    5.4586    0.0204    1.6800 F   0  0  0  0  0  0  0  0  0  0  0  0
    5.0312   -2.2166    2.2302 F   0  0  0  0  0  0  0  0  0  0  0  0
    6.3129   -0.9065    3.5596 F   0  0  0  0  0  0  0  0  0  0  0  0
    4.7180    0.6825    3.7978 F   0  0  0  0  0  0  0  0  0  0  0  0
    4.2931   -1.5545    4.3489 F   0  0  0  0  0  0  0  0  0  0  0  0
   -3.9497   -1.2380   -2.4070 H   0  0  0  0  0  0  0  0  0  0  0  0
   -3.1841    0.1207   -3.2709 H   0  0  0  0  0  0  0  0  0  0  0  0
   -4.4884    0.4329   -2.0937 H   0  0  0  0  0  0  0  0  0  0  0  0
   -5.0916    1.4910    1.1557 H   0  0  0  0  0  0  0  0  0  0  0  0
   -5.3435    0.0962    2.2372 H   0  0  0  0  0  0  0  0  0  0  0  0
   -5.5354   -0.0958    0.4727 H   0  0  0  0  0  0  0  0  0  0  0  0
   -2.3163    2.1709    2.3929 C   0  0  0  0  0  0  0  0  0  0  0  0
   -2.0607    0.9636    3.0288 C   0  0  0  0  0  0  0  0  0  0  0  0
   -1.0365    0.9088    4.0144 C   0  0  0  0  0  0  0  0  0  0  0  0
   -0.1239    2.0082    4.1272 C   0  0  0  0  0  0  0  0  0  0  0  0
   -0.4317    3.2383    3.4825 C   0  0  0  0  0  0  0  0  0  0  0  0
   -1.5227    3.2719    2.6813 C   0  0  0  0  0  0  0  0  0  0  0  0
   -0.7785   -0.2258    4.8446 C   0  0  0  0  0  0  0  0  0  0  0  0
    0.5274   -0.3494    5.3507 C   0  0  0  0  0  0  0  0  0  0  0  0
    1.4193    0.7623    5.2780 C   0  0  0  0  0  0  0  0  0  0  0  0
    1.0364    1.9294    4.7716 N   0  0  0  0  0  0  0  0  0  0  0  0
   -1.7064   -1.2481    5.2154 C   0  0  0  0  0  0  0  0  0  0  0  0
   -1.1488   -2.4855    5.6758 C   0  0  0  0  0  0  0  0  0  0  0  0
    0.1371   -2.6389    5.9776 N   0  0  0  0  0  0  0  0  0  0  0  0
    0.9448   -1.5853    5.9292 C   0  0  0  0  0  0  0  0  0  0  0  0
    2.2736   -1.6946    6.4068 C   0  0  0  0  0  0  0  0  0  0  0  0
    3.0891   -0.5939    6.3355 C   0  0  0  0  0  0  0  0  0  0  0  0
    2.7232    0.6204    5.8123 C   0  0  0  0  0  0  0  0  0  0  0  0
   -3.1174   -1.0728    5.2543 C   0  0  0  0  0  0  0  0  0  0  0  0
   -3.9257   -2.1780    5.4836 C   0  0  0  0  0  0  0  0  0  0  0  0
   -3.3371   -3.4086    5.7368 C   0  0  0  0  0  0  0  0  0  0  0  0
   -2.0043   -3.6044    5.8743 C   0  0  0  0  0  0  0  0  0  0  0  0
   -3.5829    0.1772    5.1367 O   0  0  0  0  0  0  0  0  0  0  0  0
   -2.6757   -0.1847    2.7198 O   0  0  0  0  0  0  0  0  0  0  0  0
    0.2214    4.0819    3.6175 H   0  0  0  0  0  0  0  0  0  0  0  0
   -3.1089    2.2808    1.6749 H   0  0  0  0  0  0  0  0  0  0  0  0
    3.3994    1.4576    5.7903 H   0  0  0  0  0  0  0  0  0  0  0  0
    2.6136   -2.6290    6.8192 H   0  0  0  0  0  0  0  0  0  0  0  0
   -1.5785   -4.5494    6.1609 H   0  0  0  0  0  0  0  0  0  0  0  0
   -4.9987   -2.1114    5.4796 H   0  0  0  0  0  0  0  0  0  0  0  0
   -4.9732    0.4137    5.2593 C   0  0  0  0  0  0  0  0  0  0  0  0
   -3.6292   -0.2005    1.6736 C   0  0  0  0  0  0  0  0  0  0  0  0
   -1.9867    4.8547    1.8509 S   0  0  0  0  0  0  0  0  0  0  0  0
   -3.5989    4.6241    2.2038 F   0  0  0  0  0  0  0  0  0  0  0  0
   -1.8053    5.7214    3.2481 F   0  0  0  0  0  0  0  0  0  0  0  0
   -2.4184    6.2264    1.1278 F   0  0  0  0  0  0  0  0  0  0  0  0
   -2.2183    4.0990    0.3868 F   0  0  0  0  0  0  0  0  0  0  0  0
   -0.4251    5.1951    1.4308 F   0  0  0  0  0  0  0  0  0  0  0  0
   -4.4869   -4.8377    5.9516 S   0  0  0  0  0  0  0  0  0  0  0  0
   -5.5030   -3.9603    6.9345 F   0  0  0  0  0  0  0  0  0  0  0  0
   -5.3922   -4.3720    4.6325 F   0  0  0  0  0  0  0  0  0  0  0  0
   -5.5071   -6.0712    6.1213 F   0  0  0  0  0  0  0  0  0  0  0  0
   -3.5695   -5.8111    4.9785 F   0  0  0  0  0  0  0  0  0  0  0  0
   -3.6814   -5.3997    7.2811 F   0  0  0  0  0  0  0  0  0  0  0  0
    4.8142   -0.7610    6.9912 S   0  0  0  0  0  0  0  0  0  0  0  0
    5.4586    0.0204    5.6800 F   0  0  0  0  0  0  0  0  0  0  0  0
    5.0312   -2.2166    6.2302 F   0  0  0  0  0  0  0  0  0  0  0  0
    6.3129   -0.9065    7.5596 F   0  0  0  0  0  0  0  0  0  0  0  0
    4.7180    0.6825    7.7978 F   0  0  0  0  0  0  0  0  0  0  0  0
    4.2931   -1.5545    8.3489 F   0  0  0  0  0  0  0  0  0  0  0  0
   -3.9497   -1.2380    1.5930 H   0  0  0  0  0  0  0  0  0  0  0  0
   -3.1841    0.1207    0.7291 H   0  0  0  0  0  0  0  0  0  0  0  0
   -4.4884    0.4329    1.9063 H   0  0  0  0  0  0  0  0  0  0  0  0
   -5.0916    1.4910    5.1557 H   0  0  0  0  0  0  0  0  0  0  0  0
   -5.3435    0.0962    6.2372 H   0  0  0  0  0  0  0  0  0  0  0  0
   -5.5354   -0.0958    4.4727 H   0  0  0  0  0  0  0  0  0  0  0  0
  1  2  1  0  0  0  0
  1  6  1  0  0  0  0
  1 25  1  0  0  0  0
  2  3  2  0  0  0  0
  2 23  1  0  0  0  0
  3  4  1  0  0  0  0
  3  7  1  0  0  0  0
  4  5  1  0  0  0  0
  4 10  2  0  0  0  0
  5  6  2  0  0  0  0
  5 24  1  0  0  0  0
  6 32  1  0  0  0  0
  7  8  2  0  0  0  0
  7 11  1  0  0  0  0
  8  9  1  0  0  0  0
  8 14  1  0  0  0  0
  9 10  1  0  0  0  0
  9 17  2  0  0  0  0
 11 12  2  0  0  0  0
 11 18  1  0  0  0  0
 12 13  1  0  0  0  0
 12 21  1  0  0  0  0
 13 14  2  0  0  0  0
 14 15  1  0  0  0  0
 15 16  2  0  0  0  0
 15 27  1  0  0  0  0
 16 17  1  0  0  0  0
 16 44  1  0  0  0  0
 17 26  1  0  0  0  0
 18 19  2  0  0  0  0
 18 22  1  0  0  0  0
 19 20  1  0  0  0  0
 19 29  1  0  0  0  0
 20 21  2  0  0  0  0
 20 38  1  0  0  0  0
 21 28  1  0  0  0  0
 22 30  1  0  0  0  0
 23 31  1  0  0  0  0
 30 53  1  0  0  0  0
 30 54  1  0  0  0  0
 30 55  1  0  0  0  0
 31 50  1  0  0  0  0
 31 51  1  0  0  0  0
 31 52  1  0  0  0  0
 32 33  1  0  0  0  0
 32 34  1  0  0  0  0
 32 35  1  0  0  0  0
 32 36  1  0  0  0  0
 32 37  1  0  0  0  0
 38 39  1  0  0  0  0
 38 40  1  0  0  0  0
 38 41  1  0  0  0  0
 38 42  1  0  0  0  0
 38 43  1  0  0  0  0
 44 45  1  0  0  0  0
 44 46  1  0  0  0  0
 44 47  1  0  0  0  0
 44 48  1  0  0  0  0
 44 49  1  0  0  0  0
 56 57  1  0  0  0  0
 56 61  1  0  0  0  0
 56 80  1  0  0  0  0
 57 58  2  0  0  0  0
 57 78  1  0  0  0  0
 58 59  1  0  0  0  0
 58 62  1  0  0  0  0
 59 60  1  0  0  0  0
 59 65  2  0  0  0  0
 60 61  2  0  0  0  0
 60 79  1  0  0  0  0
 61 87  1  0  0  0  0
 62 63  2  0  0  0  0
 62 66  1  0  0  0  0
 63 64  1  0  0  0  0
 63 69  1  0  0  0  0
 64 65  1  0  0  0  0
 64 72  2  0  0  0  0
 66 67  2  0  0  0  0
 66 73  1  0  0  0  0
 67 68  1  0  0  0  0
 67 76  1  0  0  0  0
 68 69  2  0  0  0  0
 69 70  1  0  0  0  0
 70 71  2  0  0  0  0
 70 82  1  0  0  0  0
 71 72  1  0  0  0  0
 71 99  1  0  0  0  0
 72 81  1  0  0  0  0
 73 74  2  0  0  0  0
 73 77  1  0  0  0  0
 74 75  1  0  0  0  0
 74 84  1  0  0  0  0
 75 76  2  0  0  0  0
 75 93  1  0  0  0  0
 76 83  1  0  0  0  0
 77 85  1  0  0  0  0
 78 86  1  0  0  0  0
 85108  1  0  0  0  0
 85109  1  0  0  0  0
 85110  1  0  0  0  0
 86105  1  0  0  0  0
 86106  1  0  0  0  0
 86107  1  0  0  0  0
 87 88  1  0  0  0  0
 87 89  1  0  0  0  0
 87 90  1  0  0  0  0
 87 91  1  0  0  0  0
 87 92  1  0  0  0  0
 93 94  1  0  0  0  0
 93 95  1  0  0  0  0
 93 96  1  0  0  0  0
 93 97  1  0  0  0  0
 93 98  1  0  0  0  0
 99100  1  0  0  0  0
 99101  1  0  0  0  0
 99102  1  0  0  0  0
 99103  1  0  0  0  0
 99104  1  0  0  0  0
M  END
