 xtb: 6.7.1 (edcfbbe)
          12022412003D

110118  0     0  0            999 V2000
   -2.0632    2.1785   -2.9710 C   0  0  0  0  0  0  0  0  0  0  0  0
   -1.8145    1.2155   -2.0031 C   0  0  0  0  0  0  0  0  0  0  0  0
   -0.8010    1.4617   -1.0368 C   0  0  0  0  0  0  0  0  0  0  0  0
    0.1475    2.5063   -1.2921 C   0  0  0  0  0  0  0  0  0  0  0  0
   -0.1529    3.4946   -2.2704 C   0  0  0  0  0  0  0  0  0  0  0  0
   -1.2627    3.3119   -3.0235 C   0  0  0  0  0  0  0  0  0  0  0  0
   -0.5802    0.6724    0.1330 C   0  0  0  0  0  0  0  0  0  0  0  0
    0.7291    0.6658    0.6462 C   0  0  0  0  0  0  0  0  0  0  0  0
    1.6793    1.6136    0.1573 C   0  0  0  0  0  0  0  0  0  0  0  0
    1.3364    2.5583   -0.7080 N   0  0  0  0  0  0  0  0  0  0  0  0
   -1.5495   -0.1078    0.8372 C   0  0  0  0  0  0  0  0  0  0  0  0
   -1.0515   -1.0893    1.7529 C   0  0  0  0  0  0  0  0  0  0  0  0
    0.2343   -1.1993    2.0867 N   0  0  0  0  0  0  0  0  0  0  0  0
    1.1052   -0.3116    1.6140 C   0  0  0  0  0  0  0  0  0  0  0  0
    2.4659   -0.3813    2.0074 C   0  0  0  0  0  0  0  0  0  0  0  0
    3.3407    0.5549    1.5181 C   0  0  0  0  0  0  0  0  0  0  0  0
    3.0049    1.5605    0.6474 C   0  0  0  0  0  0  0  0  0  0  0  0
   -2.9577    0.0843    0.7337 C   0  0  0  0  0  0  0  0  0  0  0  0
   -3.8096   -0.8441    1.3199 C   0  0  0  0  0  0  0  0  0  0  0  0
   -3.2758   -1.8749    2.0784 C   0  0  0  0  0  0  0  0  0  0  0  0
   -1.9565   -2.0102    2.3529 C   0  0  0  0  0  0  0  0  0  0  0  0
   -3.3856    1.1841    0.1145 O   0  0  0  0  0  0  0  0  0  0  0  0
   -2.4245    0.0233   -1.9651 O   0  0  0  0  0  0  0  0  0  0  0  0
    0.5132    4.3291   -2.3983 H   0  0  0  0  0  0  0  0  0  0  0  0
   -2.8575    2.0762   -3.6885 H   0  0  0  0  0  0  0  0  0  0  0  0
    3.7212    2.2913    0.3134 H   0  0  0  0  0  0  0  0  0  0  0  0
    2.7963   -1.1749    2.6546 H   0  0  0  0  0  0  0  0  0  0  0  0
   -1.5728   -2.7826    2.9941 H   0  0  0  0  0  0  0  0  0  0  0  0
   -4.8755   -0.7948    1.1894 H   0  0  0  0  0  0  0  0  0  0  0  0
   -4.7666    1.4754    0.0486 C   0  0  0  0  0  0  0  0  0  0  0  0
   -3.3562   -0.3084   -2.9787 C   0  0  0  0  0  0  0  0  0  0  0  0
   -1.7420    4.5925   -4.2603 S   0  0  0  0  0  0  0  0  0  0  0  0
   -1.5218    5.8266   -3.1903 F   0  0  0  0  0  0  0  0  0  0  0  0
   -0.1924    4.7771   -4.8039 F   0  0  0  0  0  0  0  0  0  0  0  0
   -2.1914    5.6946   -5.3464 F   0  0  0  0  0  0  0  0  0  0  0  0
   -3.3462    4.4852   -3.8223 F   0  0  0  0  0  0  0  0  0  0  0  0
   -2.0143    3.4454   -5.4391 F   0  0  0  0  0  0  0  0  0  0  0  0
   -4.4801   -3.1141    2.7407 S   0  0  0  0  0  0  0  0  0  0  0  0
   -5.6452   -1.9471    3.0119 F   0  0  0  0  0  0  0  0  0  0  0  0
   -5.1133   -3.3669    1.2221 F   0  0  0  0  0  0  0  0  0  0  0  0
   -5.5373   -4.1768    3.2980 F   0  0  0  0  0  0  0  0  0  0  0  0
   -3.4181   -4.3626    2.5400 F   0  0  0  0  0  0  0  0  0  0  0  0
   -3.9367   -2.9054    4.3015 F   0  0  0  0  0  0  0  0  0  0  0  0
    5.1168    0.4263    2.0297 S   0  0  0  0  0  0  0  0  0  0  0  0
    5.6492    0.7496    0.4936 F   0  0  0  0  0  0  0  0  0  0  0  0
    5.1537   -1.1869    1.6988 F   0  0  0  0  0  0  0  0  0  0  0  0
    6.6590    0.3230    2.4717 F   0  0  0  0  0  0  0  0  0  0  0  0
    5.1936    2.0446    2.3821 F   0  0  0  0  0  0  0  0  0  0  0  0
    4.7160    0.1139    3.6073 F   0  0  0  0  0  0  0  0  0  0  0  0
   -3.6820   -1.3215   -2.7488 H   0  0  0  0  0  0  0  0  0  0  0  0
   -2.8880   -0.2885   -3.9658 H   0  0  0  0  0  0  0  0  0  0  0  0
   -4.2158    0.3660   -2.9699 H   0  0  0  0  0  0  0  0  0  0  0  0
   -4.8292    2.4317   -0.4680 H   0  0  0  0  0  0  0  0  0  0  0  0
   -5.2047    1.5750    1.0450 H   0  0  0  0  0  0  0  0  0  0  0  0
   -5.3119    0.7115   -0.5123 H   0  0  0  0  0  0  0  0  0  0  0  0
   -2.2673    1.8642    3.7654 C   0  0  0  0  0  0  0  0  0  0  0  0
   -2.2964    0.6596    4.4577 C   0  0  0  0  0  0  0  0  0  0  0  0
   -1.0782    0.0959    4.9335 C   0  0  0  0  0  0  0  0  0  0  0  0
    0.1537    0.7427    4.5913 C   0  0  0  0  0  0  0  0  0  0  0  0
    0.1416    2.0014    3.9306 C   0  0  0  0  0  0  0  0  0  0  0  0
   -1.0550    2.4952    3.5402 C   0  0  0  0  0  0  0  0  0  0  0  0
   -0.9731   -1.1568    5.6245 C   0  0  0  0  0  0  0  0  0  0  0  0
    0.2815   -1.7940    5.5742 C   0  0  0  0  0  0  0  0  0  0  0  0
    1.4345   -1.0572    5.1808 C   0  0  0  0  0  0  0  0  0  0  0  0
    1.3537    0.2082    4.7924 N   0  0  0  0  0  0  0  0  0  0  0  0
   -2.0095   -1.8680    6.3009 C   0  0  0  0  0  0  0  0  0  0  0  0
   -1.8443   -3.2902    6.4114 C   0  0  0  0  0  0  0  0  0  0  0  0
   -0.6832   -3.9004    6.2133 N   0  0  0  0  0  0  0  0  0  0  0  0
    0.3906   -3.1761    5.9170 C   0  0  0  0  0  0  0  0  0  0  0  0
    1.6605   -3.7981    5.8523 C   0  0  0  0  0  0  0  0  0  0  0  0
    2.7496   -3.0300    5.5231 C   0  0  0  0  0  0  0  0  0  0  0  0
    2.6987   -1.6948    5.2205 C   0  0  0  0  0  0  0  0  0  0  0  0
   -3.1430   -1.2707    6.9131 C   0  0  0  0  0  0  0  0  0  0  0  0
   -4.2190   -2.0795    7.2493 C   0  0  0  0  0  0  0  0  0  0  0  0
   -4.1162   -3.4523    7.0747 C   0  0  0  0  0  0  0  0  0  0  0  0
   -2.9672   -4.0918    6.7532 C   0  0  0  0  0  0  0  0  0  0  0  0
   -3.0784    0.0408    7.1777 O   0  0  0  0  0  0  0  0  0  0  0  0
   -3.4224   -0.0424    4.6271 O   0  0  0  0  0  0  0  0  0  0  0  0
    1.0791    2.4823    3.7166 H   0  0  0  0  0  0  0  0  0  0  0  0
   -3.1617    2.3179    3.3806 H   0  0  0  0  0  0  0  0  0  0  0  0
    3.5846   -1.1267    4.9962 H   0  0  0  0  0  0  0  0  0  0  0  0
    1.7478   -4.8506    6.0614 H   0  0  0  0  0  0  0  0  0  0  0  0
   -2.8804   -5.1631    6.7261 H   0  0  0  0  0  0  0  0  0  0  0  0
   -5.1456   -1.6750    7.6147 H   0  0  0  0  0  0  0  0  0  0  0  0
   -4.1213    0.6382    7.9263 C   0  0  0  0  0  0  0  0  0  0  0  0
   -4.6715    0.5611    4.3467 C   0  0  0  0  0  0  0  0  0  0  0  0
   -1.0973    4.0387    2.5306 S   0  0  0  0  0  0  0  0  0  0  0  0
   -2.5214    4.5595    3.2179 F   0  0  0  0  0  0  0  0  0  0  0  0
   -0.2276    4.9028    3.6336 F   0  0  0  0  0  0  0  0  0  0  0  0
   -1.1498    5.3542    1.6069 F   0  0  0  0  0  0  0  0  0  0  0  0
   -1.9768    3.2671    1.3316 F   0  0  0  0  0  0  0  0  0  0  0  0
    0.2988    3.6239    1.7311 F   0  0  0  0  0  0  0  0  0  0  0  0
   -5.6703   -4.4210    7.2311 S   0  0  0  0  0  0  0  0  0  0  0  0
   -6.1543   -3.5532    8.5760 F   0  0  0  0  0  0  0  0  0  0  0  0
   -6.4965   -3.3413    6.2803 F   0  0  0  0  0  0  0  0  0  0  0  0
   -7.0495   -5.2417    7.3816 F   0  0  0  0  0  0  0  0  0  0  0  0
   -5.3160   -5.3678    5.9387 F   0  0  0  0  0  0  0  0  0  0  0  0
   -4.9703   -5.5424    8.2327 F   0  0  0  0  0  0  0  0  0  0  0  0
    4.4069   -3.8423    5.3954 S   0  0  0  0  0  0  0  0  0  0  0  0
    5.1582   -2.6103    6.1966 F   0  0  0  0  0  0  0  0  0  0  0  0
    4.7050   -3.1129    3.9458 F   0  0  0  0  0  0  0  0  0  0  0  0
    5.8400   -4.5618    5.2773 F   0  0  0  0  0  0  0  0  0  0  0  0
    4.1981   -4.6442    6.8350 F   0  0  0  0  0  0  0  0  0  0  0  0
    3.7638   -5.1477    4.5980 F   0  0  0  0  0  0  0  0  0  0  0  0
   -5.4173   -0.1706    4.6509 H   0  0  0  0  0  0  0  0  0  0  0  0
   -4.7879    0.7574    3.2793 H   0  0  0  0  0  0  0  0  0  0  0  0
   -4.7905    1.4915    4.9083 H   0  0  0  0  0  0  0  0  0  0  0  0
   -3.8118    1.6706    8.0795 H   0  0  0  0  0  0  0  0  0  0  0  0
   -4.2421    0.1447    8.8938 H   0  0  0  0  0  0  0  0  0  0  0  0
   -5.0702    0.6144    7.3856 H   0  0  0  0  0  0  0  0  0  0  0  0
  1  2  4  0  0  0  0
  2  3  4  0  0  0  0
  3  4  4  0  0  0  0
  4  5  4  0  0  0  0
  1  6  4  0  0  0  0
  5  6  2  0  0  0  0
  3  7  4  0  0  0  0
  7  8  4  0  0  0  0
  8  9  1  0  0  0  0
  4 10  4  0  0  0  0
  9 10  4  0  0  0  0
  7 11  4  0  0  0  0
 11 12  4  0  0  0  0
 12 13  4  0  0  0  0
  8 14  1  0  0  0  0
 13 14  4  0  0  0  0
 14 15  4  0  0  0  0
 15 16  4  0  0  0  0
  9 17  4  0  0  0  0
 16 17  4  0  0  0  0
 11 18  4  0  0  0  0
 18 19  4  0  0  0  0
 19 20  4  0  0  0  0
 12 21  4  0  0  0  0
 20 21  2  0  0  0  0
 18 22  1  0  0  0  0
  2 23  1  0  0  0  0
  5 24  1  0  0  0  0
  1 25  1  0  0  0  0
 17 26  1  0  0  0  0
 15 27  1  0  0  0  0
 21 28  1  0  0  0  0
 19 29  1  0  0  0  0
 22 30  1  0  0  0  0
 23 31  1  0  0  0  0
  6 32  1  0  0  0  0
 32 33  1  0  0  0  0
 32 34  1  0  0  0  0
 32 35  1  0  0  0  0
 32 36  1  0  0  0  0
 32 37  1  0  0  0  0
 20 38  1  0  0  0  0
 38 39  1  0  0  0  0
 38 40  1  0  0  0  0
 38 41  1  0  0  0  0
 38 42  1  0  0  0  0
 38 43  1  0  0  0  0
 16 44  1  0  0  0  0
 44 45  1  0  0  0  0
 44 46  1  0  0  0  0
 44 47  1  0  0  0  0
 44 48  1  0  0  0  0
 44 49  1  0  0  0  0
 31 50  1  0  0  0  0
 31 51  1  0  0  0  0
 31 52  1  0  0  0  0
 30 53  1  0  0  0  0
 30 54  1  0  0  0  0
 30 55  1  0  0  0  0
 56 57  4  0  0  0  0
 57 58  4  0  0  0  0
 58 59  4  0  0  0  0
 59 60  4  0  0  0  0
 56 61  4  0  0  0  0
 60 61  2  0  0  0  0
 58 62  4  0  0  0  0
 62 63  4  0  0  0  0
 63 64  1  0  0  0  0
 59 65  4  0  0  0  0
 64 65  4  0  0  0  0
 62 66  4  0  0  0  0
 66 67  1  0  0  0  0
 67 68  4  0  0  0  0
 63 69  1  0  0  0  0
 68 69  4  0  0  0  0
 69 70  4  0  0  0  0
 70 71  4  0  0  0  0
 64 72  4  0  0  0  0
 71 72  4  0  0  0  0
 66 73  4  0  0  0  0
 73 74  4  0  0  0  0
 74 75  4  0  0  0  0
 67 76  4  0  0  0  0
 75 76  2  0  0  0  0
 73 77  1  0  0  0  0
 57 78  1  0  0  0  0
 60 79  1  0  0  0  0
 56 80  1  0  0  0  0
 72 81  1  0  0  0  0
 70 82  1  0  0  0  0
 76 83  1  0  0  0  0
 74 84  1  0  0  0  0
 77 85  1  0  0  0  0
 78 86  1  0  0  0  0
 61 87  1  0  0  0  0
 87 88  1  0  0  0  0
 87 89  1  0  0  0  0
 87 90  1  0  0  0  0
 87 91  1  0  0  0  0
 87 92  1  0  0  0  0
 75 93  1  0  0  0  0
 93 94  1  0  0  0  0
 93 95  1  0  0  0  0
 93 96  1  0  0  0  0
 93 97  1  0  0  0  0
 93 98  1  0  0  0  0
 71 99  1  0  0  0  0
 99100  1  0  0  0  0
 99101  1  0  0  0  0
 99102  1  0  0  0  0
 99103  1  0  0  0  0
 99104  1  0  0  0  0
 86105  1  0  0  0  0
 86106  1  0  0  0  0
 86107  1  0  0  0  0
 85108  1  0  0  0  0
 85109  1  0  0  0  0
 85110  1  0  0  0  0
M  END
