energy: -209.297108240830 gnorm: 0.000284668320 xtb: 6.7.1 (edcfbbe)_energy: -209.297108240830 gnorm: 0.000284668320 xtb: 6.7.1 (edcfbbe)
 OpenBabel03172518113D

282304  0  0  0  0  0  0  0  0999 V2000
   -2.1219   -3.0437    1.6928 C   0  0  0  0  0  0  0  0  0  0  0  0
   -2.2117   -1.7298    1.2311 C   0  0  0  0  0  0  0  0  0  0  0  0
   -2.9086   -1.4199    0.0326 C   0  0  0  0  0  0  0  0  0  0  0  0
   -3.3832   -2.5471   -0.6914 C   0  0  0  0  0  0  0  0  0  0  0  0
   -3.2108   -3.8449   -0.2368 C   0  0  0  0  0  0  0  0  0  0  0  0
   -2.6105   -4.1265    0.9836 C   0  0  0  0  0  0  0  0  0  0  0  0
   -3.2645   -0.0937   -0.3841 C   0  0  1  0  0  0  0  0  0  0  0  0
   -4.3671   -0.0106   -1.3016 C   0  0  0  0  0  0  0  0  0  0  0  0
   -4.7427   -1.0950   -2.1224 C   0  0  0  0  0  0  0  0  0  0  0  0
   -4.1167   -2.4043   -1.9501 C   0  0  0  0  0  0  0  0  0  0  0  0
   -2.7135    1.1674    0.0581 C   0  0  0  0  0  0  0  0  0  0  0  0
   -3.5487    2.3168    0.0120 C   0  0  0  0  0  0  0  0  0  0  0  0
   -4.9014    2.2888   -0.5495 C   0  0  0  0  0  0  0  0  0  0  0  0
   -5.1547    1.1495   -1.4286 C   0  0  0  0  0  0  0  0  0  0  0  0
   -6.1977    1.2338   -2.3435 C   0  0  0  0  0  0  0  0  0  0  0  0
   -6.4994    0.1941   -3.2102 C   0  0  0  0  0  0  0  0  0  0  0  0
   -5.7533   -0.9693   -3.0649 C   0  0  0  0  0  0  0  0  0  0  0  0
   -1.3628    1.4237    0.4332 C   0  0  0  0  0  0  0  0  0  0  0  0
   -0.9477    2.7206    0.7581 C   0  0  0  0  0  0  0  0  0  0  0  0
   -1.7956    3.8140    0.7656 C   0  0  0  0  0  0  0  0  0  0  0  0
   -3.1106    3.5737    0.3972 C   0  0  0  0  0  0  0  0  0  0  0  0
   -1.6032   -0.7932    1.9704 O   0  0  0  0  0  0  0  0  0  0  0  0
   -0.3907    0.5001    0.3897 O   0  0  0  0  0  0  0  0  0  0  0  0
   -0.2499   -0.4903    1.4566 B   0  5  1  0  0  0  0  0  0  0  0  0
    1.8009   -3.3926    1.4140 C   0  0  0  0  0  0  0  0  0  0  0  0
    1.6218   -2.0517    1.0547 C   0  0  0  0  0  0  0  0  0  0  0  0
    2.7473   -1.2494    0.7103 C   0  0  0  0  0  0  0  0  0  0  0  0
    3.9217   -2.0045    0.4336 C   0  0  0  0  0  0  0  0  0  0  0  0
    4.0625   -3.3373    0.8047 C   0  0  0  0  0  0  0  0  0  0  0  0
    3.0210   -4.0463    1.3780 C   0  0  0  0  0  0  0  0  0  0  0  0
    2.8263    0.1927    0.5705 C   0  0  2  0  0  0  0  0  0  0  0  0
    3.7905    0.6735   -0.3788 C   0  0  0  0  0  0  0  0  0  0  0  0
    4.7535   -0.1630   -0.9755 C   0  0  0  0  0  0  0  0  0  0  0  0
    2.2546    1.1792    1.4318 C   0  0  0  0  0  0  0  0  0  0  0  0
    2.6865    2.5339    1.3264 C   0  0  0  0  0  0  0  0  0  0  0  0
    3.2200    3.0487    0.0651 C   0  0  0  0  0  0  0  0  0  0  0  0
    3.8463    2.0299   -0.7692 C   0  0  0  0  0  0  0  0  0  0  0  0
    4.6280    2.4370   -1.8413 C   0  0  0  0  0  0  0  0  0  0  0  0
    5.4634    1.5637   -2.5281 C   0  0  0  0  0  0  0  0  0  0  0  0
    5.5588    0.2763   -2.0197 C   0  0  0  0  0  0  0  0  0  0  0  0
    1.3886    0.9516    2.5491 C   0  0  0  0  0  0  0  0  0  0  0  0
    1.4043    1.8314    3.6330 C   0  0  0  0  0  0  0  0  0  0  0  0
    2.0677    3.0489    3.6116 C   0  0  0  0  0  0  0  0  0  0  0  0
    2.6132    3.4231    2.3890 C   0  0  0  0  0  0  0  0  0  0  0  0
    0.5375   -0.0548    2.6323 O   0  0  0  0  0  0  0  0  0  0  0  0
    0.3462   -1.6992    0.9366 O   0  0  0  0  0  0  0  0  0  0  0  0
    5.0142   -1.4723   -0.3819 C   0  0  0  0  0  0  0  0  0  0  0  0
    3.2101    4.2443   -0.2186 O   0  0  0  0  0  0  0  0  0  0  0  0
    6.0537   -2.0909   -0.5983 O   0  0  0  0  0  0  0  0  0  0  0  0
   -4.2805   -3.3291   -2.7417 O   0  0  0  0  0  0  0  0  0  0  0  0
   -5.7230    3.1847   -0.3762 O   0  0  0  0  0  0  0  0  0  0  0  0
   -2.5104   -5.5651    1.4602 C   0  0  0  0  0  0  0  0  0  0  0  0
   -1.7469   -5.6944    2.7802 C   0  0  0  0  0  0  0  0  0  0  0  0
   -1.7862   -6.3949    0.3907 C   0  0  0  0  0  0  0  0  0  0  0  0
   -3.9300   -6.1132    1.6658 C   0  0  0  0  0  0  0  0  0  0  0  0
   -1.3674    5.2271    1.1178 C   0  0  0  0  0  0  0  0  0  0  0  0
   -1.6544    6.1506   -0.0745 C   0  0  0  0  0  0  0  0  0  0  0  0
   -2.1769    5.6880    2.3389 C   0  0  0  0  0  0  0  0  0  0  0  0
    0.1193    5.3255    1.4534 C   0  0  0  0  0  0  0  0  0  0  0  0
   -7.5948    0.2662   -4.2601 C   0  0  0  0  0  0  0  0  0  0  0  0
   -6.9741    0.0174   -5.6418 C   0  0  0  0  0  0  0  0  0  0  0  0
   -8.2928    1.6283   -4.2818 C   0  0  0  0  0  0  0  0  0  0  0  0
   -8.6442   -0.8135   -3.9614 C   0  0  0  0  0  0  0  0  0  0  0  0
    3.1551   -5.4695    1.8902 C   0  0  0  0  0  0  0  0  0  0  0  0
    2.2599   -6.3976    1.0598 C   0  0  0  0  0  0  0  0  0  0  0  0
    2.7164   -5.5054    3.3608 C   0  0  0  0  0  0  0  0  0  0  0  0
    4.5960   -5.9800    1.8051 C   0  0  0  0  0  0  0  0  0  0  0  0
    2.1261    3.9127    4.8593 C   0  0  0  0  0  0  0  0  0  0  0  0
    2.8548    3.1162    5.9518 C   0  0  0  0  0  0  0  0  0  0  0  0
    2.8861    5.2205    4.6229 C   0  0  0  0  0  0  0  0  0  0  0  0
    0.7090    4.2566    5.3372 C   0  0  0  0  0  0  0  0  0  0  0  0
    6.2671    2.0584   -3.7177 C   0  0  0  0  0  0  0  0  0  0  0  0
    7.2306    3.1576   -3.2489 C   0  0  0  0  0  0  0  0  0  0  0  0
    7.0834    0.9413   -4.3726 C   0  0  0  0  0  0  0  0  0  0  0  0
    5.3001    2.6285   -4.7647 C   0  0  0  0  0  0  0  0  0  0  0  0
    7.6016    1.3317   -5.2471 H   0  0  0  0  0  0  0  0  0  0  0  0
    6.4375    0.1280   -4.6949 H   0  0  0  0  0  0  0  0  0  0  0  0
    7.8297    0.5483   -3.6864 H   0  0  0  0  0  0  0  0  0  0  0  0
    7.8238    3.5210   -4.0863 H   0  0  0  0  0  0  0  0  0  0  0  0
    7.9053    2.7660   -2.4901 H   0  0  0  0  0  0  0  0  0  0  0  0
    6.6888    3.9970   -2.8220 H   0  0  0  0  0  0  0  0  0  0  0  0
    5.8521    2.9886   -5.6314 H   0  0  0  0  0  0  0  0  0  0  0  0
    4.7233    3.4546   -4.3588 H   0  0  0  0  0  0  0  0  0  0  0  0
    4.6057    1.8577   -5.0925 H   0  0  0  0  0  0  0  0  0  0  0  0
    2.9323    5.7891    5.5505 H   0  0  0  0  0  0  0  0  0  0  0  0
    2.3856    5.8314    3.8759 H   0  0  0  0  0  0  0  0  0  0  0  0
    3.9034    5.0239    4.2933 H   0  0  0  0  0  0  0  0  0  0  0  0
    0.7563    4.8408    6.2550 H   0  0  0  0  0  0  0  0  0  0  0  0
    0.1293    3.3591    5.5322 H   0  0  0  0  0  0  0  0  0  0  0  0
    0.1874    4.8430    4.5846 H   0  0  0  0  0  0  0  0  0  0  0  0
    2.9278    3.7051    6.8647 H   0  0  0  0  0  0  0  0  0  0  0  0
    3.8601    2.8607    5.6228 H   0  0  0  0  0  0  0  0  0  0  0  0
    2.3264    2.1940    6.1770 H   0  0  0  0  0  0  0  0  0  0  0  0
   -1.8799    6.6942    2.6310 H   0  0  0  0  0  0  0  0  0  0  0  0
   -2.0025    5.0162    3.1770 H   0  0  0  0  0  0  0  0  0  0  0  0
   -3.2422    5.6928    2.1249 H   0  0  0  0  0  0  0  0  0  0  0  0
   -1.3469    7.1683    0.1595 H   0  0  0  0  0  0  0  0  0  0  0  0
   -2.7115    6.1609   -0.3256 H   0  0  0  0  0  0  0  0  0  0  0  0
   -1.0977    5.8138   -0.9460 H   0  0  0  0  0  0  0  0  0  0  0  0
    0.3674    6.3526    1.7188 H   0  0  0  0  0  0  0  0  0  0  0  0
    0.7387    5.0393    0.6074 H   0  0  0  0  0  0  0  0  0  0  0  0
    0.3639    4.6842    2.2947 H   0  0  0  0  0  0  0  0  0  0  0  0
   -9.4435   -0.7769   -4.6997 H   0  0  0  0  0  0  0  0  0  0  0  0
   -9.0758   -0.6540   -2.9753 H   0  0  0  0  0  0  0  0  0  0  0  0
   -8.2026   -1.8059   -3.9830 H   0  0  0  0  0  0  0  0  0  0  0  0
   -9.0546    1.6360   -5.0599 H   0  0  0  0  0  0  0  0  0  0  0  0
   -7.5835    2.4248   -4.4939 H   0  0  0  0  0  0  0  0  0  0  0  0
   -8.7788    1.8327   -3.3309 H   0  0  0  0  0  0  0  0  0  0  0  0
   -7.7402    0.0669   -6.4139 H   0  0  0  0  0  0  0  0  0  0  0  0
   -6.5016   -0.9595   -5.6899 H   0  0  0  0  0  0  0  0  0  0  0  0
   -6.2190    0.7713   -5.8546 H   0  0  0  0  0  0  0  0  0  0  0  0
    2.3690   -7.4276    1.3955 H   0  0  0  0  0  0  0  0  0  0  0  0
    2.5352   -6.3439    0.0087 H   0  0  0  0  0  0  0  0  0  0  0  0
    1.2158   -6.1166    1.1533 H   0  0  0  0  0  0  0  0  0  0  0  0
    2.7867   -6.5193    3.7517 H   0  0  0  0  0  0  0  0  0  0  0  0
    1.6915   -5.1645    3.4730 H   0  0  0  0  0  0  0  0  0  0  0  0
    3.3555   -4.8580    3.9576 H   0  0  0  0  0  0  0  0  0  0  0  0
    4.6564   -6.9787    2.2353 H   0  0  0  0  0  0  0  0  0  0  0  0
    5.2706   -5.3296    2.3565 H   0  0  0  0  0  0  0  0  0  0  0  0
    4.9286   -6.0368    0.7717 H   0  0  0  0  0  0  0  0  0  0  0  0
   -1.6936   -6.7420    3.0734 H   0  0  0  0  0  0  0  0  0  0  0  0
   -2.2458   -5.1446    3.5746 H   0  0  0  0  0  0  0  0  0  0  0  0
   -0.7316   -5.3200    2.6794 H   0  0  0  0  0  0  0  0  0  0  0  0
   -3.8903   -7.1528    1.9873 H   0  0  0  0  0  0  0  0  0  0  0  0
   -4.5050   -6.0581    0.7456 H   0  0  0  0  0  0  0  0  0  0  0  0
   -4.4493   -5.5340    2.4267 H   0  0  0  0  0  0  0  0  0  0  0  0
   -1.6061   -7.4062    0.7524 H   0  0  0  0  0  0  0  0  0  0  0  0
   -0.8315   -5.9365    0.1431 H   0  0  0  0  0  0  0  0  0  0  0  0
   -2.3731   -6.4582   -0.5209 H   0  0  0  0  0  0  0  0  0  0  0  0
   -3.5911   -4.6293   -0.8741 H   0  0  0  0  0  0  0  0  0  0  0  0
   -1.6046   -3.1607    2.6312 H   0  0  0  0  0  0  0  0  0  0  0  0
   -5.9469   -1.8418   -3.6722 H   0  0  0  0  0  0  0  0  0  0  0  0
   -6.7547    2.1577   -2.3421 H   0  0  0  0  0  0  0  0  0  0  0  0
   -3.8409    4.3679    0.3520 H   0  0  0  0  0  0  0  0  0  0  0  0
    0.0979    2.8289    0.9941 H   0  0  0  0  0  0  0  0  0  0  0  0
    0.8133    1.5271    4.4831 H   0  0  0  0  0  0  0  0  0  0  0  0
    3.0103    4.4100    2.2154 H   0  0  0  0  0  0  0  0  0  0  0  0
    0.8973   -3.9059    1.7038 H   0  0  0  0  0  0  0  0  0  0  0  0
    5.0183   -3.7875    0.5898 H   0  0  0  0  0  0  0  0  0  0  0  0
    4.5825    3.4871   -2.0917 H   0  0  0  0  0  0  0  0  0  0  0  0
    6.2716   -0.4374   -2.4023 H   0  0  0  0  0  0  0  0  0  0  0  0
   -2.1219   -3.0437    6.6928 C   0  0  0  0  0  0  0  0  0  0  0  0
   -2.2117   -1.7298    6.2311 C   0  0  0  0  0  0  0  0  0  0  0  0
   -2.9086   -1.4199    5.0326 C   0  0  0  0  0  0  0  0  0  0  0  0
   -3.3832   -2.5471    4.3086 C   0  0  0  0  0  0  0  0  0  0  0  0
   -3.2108   -3.8449    4.7632 C   0  0  0  0  0  0  0  0  0  0  0  0
   -2.6105   -4.1265    5.9836 C   0  0  0  0  0  0  0  0  0  0  0  0
   -3.2645   -0.0937    4.6159 C   0  0  1  0  0  0  0  0  0  0  0  0
   -4.3671   -0.0106    3.6984 C   0  0  0  0  0  0  0  0  0  0  0  0
   -4.7427   -1.0950    2.8776 C   0  0  0  0  0  0  0  0  0  0  0  0
   -4.1167   -2.4043    3.0499 C   0  0  0  0  0  0  0  0  0  0  0  0
   -2.7135    1.1674    5.0581 C   0  0  0  0  0  0  0  0  0  0  0  0
   -3.5487    2.3168    5.0120 C   0  0  0  0  0  0  0  0  0  0  0  0
   -4.9014    2.2888    4.4505 C   0  0  0  0  0  0  0  0  0  0  0  0
   -5.1547    1.1495    3.5714 C   0  0  0  0  0  0  0  0  0  0  0  0
   -6.1977    1.2338    2.6565 C   0  0  0  0  0  0  0  0  0  0  0  0
   -6.4994    0.1941    1.7898 C   0  0  0  0  0  0  0  0  0  0  0  0
   -5.7533   -0.9693    1.9351 C   0  0  0  0  0  0  0  0  0  0  0  0
   -1.3628    1.4237    5.4332 C   0  0  0  0  0  0  0  0  0  0  0  0
   -0.9477    2.7206    5.7581 C   0  0  0  0  0  0  0  0  0  0  0  0
   -1.7956    3.8140    5.7656 C   0  0  0  0  0  0  0  0  0  0  0  0
   -3.1106    3.5737    5.3972 C   0  0  0  0  0  0  0  0  0  0  0  0
   -1.6032   -0.7932    6.9704 O   0  0  0  0  0  0  0  0  0  0  0  0
   -0.3907    0.5001    5.3897 O   0  0  0  0  0  0  0  0  0  0  0  0
   -0.2499   -0.4903    6.4566 B   0  5  1  0  0  0  0  0  0  0  0  0
    1.8009   -3.3926    6.4140 C   0  0  0  0  0  0  0  0  0  0  0  0
    1.6218   -2.0517    6.0547 C   0  0  0  0  0  0  0  0  0  0  0  0
    2.7473   -1.2494    5.7103 C   0  0  0  0  0  0  0  0  0  0  0  0
    3.9217   -2.0045    5.4336 C   0  0  0  0  0  0  0  0  0  0  0  0
    4.0625   -3.3373    5.8047 C   0  0  0  0  0  0  0  0  0  0  0  0
    3.0210   -4.0463    6.3780 C   0  0  0  0  0  0  0  0  0  0  0  0
    2.8263    0.1927    5.5705 C   0  0  2  0  0  0  0  0  0  0  0  0
    3.7905    0.6735    4.6212 C   0  0  0  0  0  0  0  0  0  0  0  0
    4.7535   -0.1630    4.0245 C   0  0  0  0  0  0  0  0  0  0  0  0
    2.2546    1.1792    6.4318 C   0  0  0  0  0  0  0  0  0  0  0  0
    2.6865    2.5339    6.3264 C   0  0  0  0  0  0  0  0  0  0  0  0
    3.2200    3.0487    5.0651 C   0  0  0  0  0  0  0  0  0  0  0  0
    3.8463    2.0299    4.2308 C   0  0  0  0  0  0  0  0  0  0  0  0
    4.6280    2.4370    3.1587 C   0  0  0  0  0  0  0  0  0  0  0  0
    5.4634    1.5637    2.4719 C   0  0  0  0  0  0  0  0  0  0  0  0
    5.5588    0.2763    2.9803 C   0  0  0  0  0  0  0  0  0  0  0  0
    1.3886    0.9516    7.5491 C   0  0  0  0  0  0  0  0  0  0  0  0
    1.4043    1.8314    8.6330 C   0  0  0  0  0  0  0  0  0  0  0  0
    2.0677    3.0489    8.6116 C   0  0  0  0  0  0  0  0  0  0  0  0
    2.6132    3.4231    7.3890 C   0  0  0  0  0  0  0  0  0  0  0  0
    0.5375   -0.0548    7.6323 O   0  0  0  0  0  0  0  0  0  0  0  0
    0.3462   -1.6992    5.9366 O   0  0  0  0  0  0  0  0  0  0  0  0
    5.0142   -1.4723    4.6181 C   0  0  0  0  0  0  0  0  0  0  0  0
    3.2101    4.2443    4.7814 O   0  0  0  0  0  0  0  0  0  0  0  0
    6.0537   -2.0909    4.4017 O   0  0  0  0  0  0  0  0  0  0  0  0
   -4.2805   -3.3291    2.2583 O   0  0  0  0  0  0  0  0  0  0  0  0
   -5.7230    3.1847    4.6238 O   0  0  0  0  0  0  0  0  0  0  0  0
   -2.5104   -5.5651    6.4602 C   0  0  0  0  0  0  0  0  0  0  0  0
   -1.7469   -5.6944    7.7802 C   0  0  0  0  0  0  0  0  0  0  0  0
   -1.7862   -6.3949    5.3907 C   0  0  0  0  0  0  0  0  0  0  0  0
   -3.9300   -6.1132    6.6658 C   0  0  0  0  0  0  0  0  0  0  0  0
   -1.3674    5.2271    6.1178 C   0  0  0  0  0  0  0  0  0  0  0  0
   -1.6544    6.1506    4.9255 C   0  0  0  0  0  0  0  0  0  0  0  0
   -2.1769    5.6880    7.3389 C   0  0  0  0  0  0  0  0  0  0  0  0
    0.1193    5.3255    6.4534 C   0  0  0  0  0  0  0  0  0  0  0  0
   -7.5948    0.2662    0.7399 C   0  0  0  0  0  0  0  0  0  0  0  0
   -6.9741    0.0174   -0.6418 C   0  0  0  0  0  0  0  0  0  0  0  0
   -8.2928    1.6283    0.7182 C   0  0  0  0  0  0  0  0  0  0  0  0
   -8.6442   -0.8135    1.0386 C   0  0  0  0  0  0  0  0  0  0  0  0
    3.1551   -5.4695    6.8902 C   0  0  0  0  0  0  0  0  0  0  0  0
    2.2599   -6.3976    6.0598 C   0  0  0  0  0  0  0  0  0  0  0  0
    2.7164   -5.5054    8.3608 C   0  0  0  0  0  0  0  0  0  0  0  0
    4.5960   -5.9800    6.8051 C   0  0  0  0  0  0  0  0  0  0  0  0
    2.1261    3.9127    9.8593 C   0  0  0  0  0  0  0  0  0  0  0  0
    2.8548    3.1162   10.9518 C   0  0  0  0  0  0  0  0  0  0  0  0
    2.8861    5.2205    9.6229 C   0  0  0  0  0  0  0  0  0  0  0  0
    0.7090    4.2566   10.3372 C   0  0  0  0  0  0  0  0  0  0  0  0
    6.2671    2.0584    1.2823 C   0  0  0  0  0  0  0  0  0  0  0  0
    7.2306    3.1576    1.7511 C   0  0  0  0  0  0  0  0  0  0  0  0
    7.0834    0.9413    0.6274 C   0  0  0  0  0  0  0  0  0  0  0  0
    5.3001    2.6285    0.2353 C   0  0  0  0  0  0  0  0  0  0  0  0
    7.6016    1.3317   -0.2471 H   0  0  0  0  0  0  0  0  0  0  0  0
    6.4375    0.1280    0.3051 H   0  0  0  0  0  0  0  0  0  0  0  0
    7.8297    0.5483    1.3136 H   0  0  0  0  0  0  0  0  0  0  0  0
    7.8238    3.5210    0.9137 H   0  0  0  0  0  0  0  0  0  0  0  0
    7.9053    2.7660    2.5099 H   0  0  0  0  0  0  0  0  0  0  0  0
    6.6888    3.9970    2.1780 H   0  0  0  0  0  0  0  0  0  0  0  0
    5.8521    2.9886   -0.6314 H   0  0  0  0  0  0  0  0  0  0  0  0
    4.7233    3.4546    0.6412 H   0  0  0  0  0  0  0  0  0  0  0  0
    4.6057    1.8577   -0.0925 H   0  0  0  0  0  0  0  0  0  0  0  0
    2.9323    5.7891   10.5505 H   0  0  0  0  0  0  0  0  0  0  0  0
    2.3856    5.8314    8.8759 H   0  0  0  0  0  0  0  0  0  0  0  0
    3.9034    5.0239    9.2933 H   0  0  0  0  0  0  0  0  0  0  0  0
    0.7563    4.8408   11.2550 H   0  0  0  0  0  0  0  0  0  0  0  0
    0.1293    3.3591   10.5322 H   0  0  0  0  0  0  0  0  0  0  0  0
    0.1874    4.8430    9.5846 H   0  0  0  0  0  0  0  0  0  0  0  0
    2.9278    3.7051   11.8647 H   0  0  0  0  0  0  0  0  0  0  0  0
    3.8601    2.8607   10.6228 H   0  0  0  0  0  0  0  0  0  0  0  0
    2.3264    2.1940   11.1770 H   0  0  0  0  0  0  0  0  0  0  0  0
   -1.8799    6.6942    7.6310 H   0  0  0  0  0  0  0  0  0  0  0  0
   -2.0025    5.0162    8.1770 H   0  0  0  0  0  0  0  0  0  0  0  0
   -3.2422    5.6928    7.1249 H   0  0  0  0  0  0  0  0  0  0  0  0
   -1.3469    7.1683    5.1595 H   0  0  0  0  0  0  0  0  0  0  0  0
   -2.7115    6.1609    4.6744 H   0  0  0  0  0  0  0  0  0  0  0  0
   -1.0977    5.8138    4.0540 H   0  0  0  0  0  0  0  0  0  0  0  0
    0.3674    6.3526    6.7188 H   0  0  0  0  0  0  0  0  0  0  0  0
    0.7387    5.0393    5.6074 H   0  0  0  0  0  0  0  0  0  0  0  0
    0.3639    4.6842    7.2947 H   0  0  0  0  0  0  0  0  0  0  0  0
   -9.4435   -0.7769    0.3003 H   0  0  0  0  0  0  0  0  0  0  0  0
   -9.0758   -0.6540    2.0247 H   0  0  0  0  0  0  0  0  0  0  0  0
   -8.2026   -1.8059    1.0170 H   0  0  0  0  0  0  0  0  0  0  0  0
   -9.0546    1.6360   -0.0599 H   0  0  0  0  0  0  0  0  0  0  0  0
   -7.5835    2.4248    0.5061 H   0  0  0  0  0  0  0  0  0  0  0  0
   -8.7788    1.8327    1.6691 H   0  0  0  0  0  0  0  0  0  0  0  0
   -7.7402    0.0669   -1.4139 H   0  0  0  0  0  0  0  0  0  0  0  0
   -6.5016   -0.9595   -0.6899 H   0  0  0  0  0  0  0  0  0  0  0  0
   -6.2190    0.7713   -0.8546 H   0  0  0  0  0  0  0  0  0  0  0  0
    2.3690   -7.4276    6.3955 H   0  0  0  0  0  0  0  0  0  0  0  0
    2.5352   -6.3439    5.0087 H   0  0  0  0  0  0  0  0  0  0  0  0
    1.2158   -6.1166    6.1533 H   0  0  0  0  0  0  0  0  0  0  0  0
    2.7867   -6.5193    8.7517 H   0  0  0  0  0  0  0  0  0  0  0  0
    1.6915   -5.1645    8.4730 H   0  0  0  0  0  0  0  0  0  0  0  0
    3.3555   -4.8580    8.9576 H   0  0  0  0  0  0  0  0  0  0  0  0
    4.6564   -6.9787    7.2353 H   0  0  0  0  0  0  0  0  0  0  0  0
    5.2706   -5.3296    7.3565 H   0  0  0  0  0  0  0  0  0  0  0  0
    4.9286   -6.0368    5.7717 H   0  0  0  0  0  0  0  0  0  0  0  0
   -1.6936   -6.7420    8.0734 H   0  0  0  0  0  0  0  0  0  0  0  0
   -2.2458   -5.1446    8.5746 H   0  0  0  0  0  0  0  0  0  0  0  0
   -0.7316   -5.3200    7.6794 H   0  0  0  0  0  0  0  0  0  0  0  0
   -3.8903   -7.1528    6.9873 H   0  0  0  0  0  0  0  0  0  0  0  0
   -4.5050   -6.0581    5.7456 H   0  0  0  0  0  0  0  0  0  0  0  0
   -4.4493   -5.5340    7.4267 H   0  0  0  0  0  0  0  0  0  0  0  0
   -1.6061   -7.4062    5.7524 H   0  0  0  0  0  0  0  0  0  0  0  0
   -0.8315   -5.9365    5.1431 H   0  0  0  0  0  0  0  0  0  0  0  0
   -2.3731   -6.4582    4.4791 H   0  0  0  0  0  0  0  0  0  0  0  0
   -3.5911   -4.6293    4.1259 H   0  0  0  0  0  0  0  0  0  0  0  0
   -1.6046   -3.1607    7.6312 H   0  0  0  0  0  0  0  0  0  0  0  0
   -5.9469   -1.8418    1.3278 H   0  0  0  0  0  0  0  0  0  0  0  0
   -6.7547    2.1577    2.6579 H   0  0  0  0  0  0  0  0  0  0  0  0
   -3.8409    4.3679    5.3520 H   0  0  0  0  0  0  0  0  0  0  0  0
    0.0979    2.8289    5.9941 H   0  0  0  0  0  0  0  0  0  0  0  0
    0.8133    1.5271    9.4831 H   0  0  0  0  0  0  0  0  0  0  0  0
    3.0103    4.4100    7.2154 H   0  0  0  0  0  0  0  0  0  0  0  0
    0.8973   -3.9059    6.7038 H   0  0  0  0  0  0  0  0  0  0  0  0
    5.0183   -3.7875    5.5898 H   0  0  0  0  0  0  0  0  0  0  0  0
    4.5825    3.4871    2.9083 H   0  0  0  0  0  0  0  0  0  0  0  0
    6.2716   -0.4374    2.5977 H   0  0  0  0  0  0  0  0  0  0  0  0
  1  2  2  0  0  0  0
  1131  1  0  0  0  0
  2  3  1  0  0  0  0
  2 22  1  0  0  0  0
  3  4  2  0  0  0  0
  4  5  1  0  0  0  0
  5  6  2  0  0  0  0
  5130  1  0  0  0  0
  6 52  1  0  0  0  0
  6  1  1  0  0  0  0
  7  3  1  1  0  0  0
  7  8  1  0  0  0  0
  7 11  1  0  0  0  0
  8  9  2  0  0  0  0
  9 10  1  0  0  0  0
 10  4  1  0  0  0  0
 10 50  2  0  0  0  0
 11 12  2  0  0  0  0
 11 18  1  0  0  0  0
 13 14  1  0  0  0  0
 13 12  1  0  0  0  0
 13 51  2  0  0  0  0
 14  8  1  0  0  0  0
 14 15  2  0  0  0  0
 15 16  1  0  0  0  0
 15133  1  0  0  0  0
 16 60  1  0  0  0  0
 16 17  2  0  0  0  0
 17  9  1  0  0  0  0
 17132  1  0  0  0  0
 18 19  2  0  0  0  0
 18 23  1  0  0  0  0
 19 20  1  0  0  0  0
 19135  1  0  0  0  0
 20 56  1  0  0  0  0
 20 21  2  0  0  0  0
 21 12  1  0  0  0  0
 21134  1  0  0  0  0
 24 23  1  6  0  0  0
 24 22  1  0  0  0  0
 25 26  2  0  0  0  0
 25138  1  0  0  0  0
 26 27  1  0  0  0  0
 26 46  1  0  0  0  0
 27 28  2  0  0  0  0
 28 29  1  0  0  0  0
 28 47  1  0  0  0  0
 29 30  2  0  0  0  0
 29139  1  0  0  0  0
 30 64  1  0  0  0  0
 30 25  1  0  0  0  0
 31 27  1  1  0  0  0
 31 32  1  0  0  0  0
 32 33  2  0  0  0  0
 34 35  2  0  0  0  0
 34 41  1  0  0  0  0
 34 31  1  0  0  0  0
 36 37  1  0  0  0  0
 36 35  1  0  0  0  0
 36 48  2  0  0  0  0
 37 32  1  0  0  0  0
 37 38  2  0  0  0  0
 38 39  1  0  0  0  0
 38140  1  0  0  0  0
 39 72  1  0  0  0  0
 39 40  2  0  0  0  0
 40 33  1  0  0  0  0
 40141  1  0  0  0  0
 41 42  2  0  0  0  0
 41 45  1  0  0  0  0
 42 43  1  0  0  0  0
 42136  1  0  0  0  0
 43 68  1  0  0  0  0
 43 44  2  0  0  0  0
 44 35  1  0  0  0  0
 44137  1  0  0  0  0
 45 24  1  0  0  0  0
 46 24  1  0  0  0  0
 47 33  1  0  0  0  0
 47 49  2  0  0  0  0
 52 53  1  0  0  0  0
 52 54  1  0  0  0  0
 52 55  1  0  0  0  0
 53121  1  0  0  0  0
 53122  1  0  0  0  0
 53123  1  0  0  0  0
 54127  1  0  0  0  0
 54128  1  0  0  0  0
 54129  1  0  0  0  0
 55124  1  0  0  0  0
 55125  1  0  0  0  0
 55126  1  0  0  0  0
 56 57  1  0  0  0  0
 56 58  1  0  0  0  0
 56 59  1  0  0  0  0
 57 97  1  0  0  0  0
 57 98  1  0  0  0  0
 57 99  1  0  0  0  0
 58 94  1  0  0  0  0
 58 95  1  0  0  0  0
 58 96  1  0  0  0  0
 59100  1  0  0  0  0
 59101  1  0  0  0  0
 59102  1  0  0  0  0
 60 61  1  0  0  0  0
 60 62  1  0  0  0  0
 60 63  1  0  0  0  0
 61109  1  0  0  0  0
 61110  1  0  0  0  0
 61111  1  0  0  0  0
 62106  1  0  0  0  0
 62107  1  0  0  0  0
 62108  1  0  0  0  0
 63103  1  0  0  0  0
 63104  1  0  0  0  0
 63105  1  0  0  0  0
 64 65  1  0  0  0  0
 64 66  1  0  0  0  0
 64 67  1  0  0  0  0
 65112  1  0  0  0  0
 65113  1  0  0  0  0
 65114  1  0  0  0  0
 66115  1  0  0  0  0
 66116  1  0  0  0  0
 66117  1  0  0  0  0
 67118  1  0  0  0  0
 67119  1  0  0  0  0
 67120  1  0  0  0  0
 68 69  1  0  0  0  0
 68 70  1  0  0  0  0
 68 71  1  0  0  0  0
 69 91  1  0  0  0  0
 69 92  1  0  0  0  0
 69 93  1  0  0  0  0
 70 85  1  0  0  0  0
 70 86  1  0  0  0  0
 70 87  1  0  0  0  0
 71 88  1  0  0  0  0
 71 89  1  0  0  0  0
 71 90  1  0  0  0  0
 72 73  1  0  0  0  0
 72 74  1  0  0  0  0
 72 75  1  0  0  0  0
 73 79  1  0  0  0  0
 73 80  1  0  0  0  0
 73 81  1  0  0  0  0
 74 76  1  0  0  0  0
 74 77  1  0  0  0  0
 74 78  1  0  0  0  0
 75 82  1  0  0  0  0
 75 83  1  0  0  0  0
 75 84  1  0  0  0  0
142143  2  0  0  0  0
142272  1  0  0  0  0
143144  1  0  0  0  0
143163  1  0  0  0  0
144145  2  0  0  0  0
145146  1  0  0  0  0
146147  2  0  0  0  0
146271  1  0  0  0  0
147193  1  0  0  0  0
147142  1  0  0  0  0
148144  1  1  0  0  0
148149  1  0  0  0  0
148152  1  0  0  0  0
149150  2  0  0  0  0
150151  1  0  0  0  0
151145  1  0  0  0  0
151191  2  0  0  0  0
152153  2  0  0  0  0
152159  1  0  0  0  0
154155  1  0  0  0  0
154153  1  0  0  0  0
154192  2  0  0  0  0
155149  1  0  0  0  0
155156  2  0  0  0  0
156157  1  0  0  0  0
156274  1  0  0  0  0
157201  1  0  0  0  0
157158  2  0  0  0  0
158150  1  0  0  0  0
158273  1  0  0  0  0
159160  2  0  0  0  0
159164  1  0  0  0  0
160161  1  0  0  0  0
160276  1  0  0  0  0
161197  1  0  0  0  0
161162  2  0  0  0  0
162153  1  0  0  0  0
162275  1  0  0  0  0
165164  1  6  0  0  0
165163  1  0  0  0  0
166167  2  0  0  0  0
166279  1  0  0  0  0
167168  1  0  0  0  0
167187  1  0  0  0  0
168169  2  0  0  0  0
169170  1  0  0  0  0
169188  1  0  0  0  0
170171  2  0  0  0  0
170280  1  0  0  0  0
171205  1  0  0  0  0
171166  1  0  0  0  0
172168  1  1  0  0  0
172173  1  0  0  0  0
173174  2  0  0  0  0
175176  2  0  0  0  0
175182  1  0  0  0  0
175172  1  0  0  0  0
177178  1  0  0  0  0
177176  1  0  0  0  0
177189  2  0  0  0  0
178173  1  0  0  0  0
178179  2  0  0  0  0
179180  1  0  0  0  0
179281  1  0  0  0  0
180213  1  0  0  0  0
180181  2  0  0  0  0
181174  1  0  0  0  0
181282  1  0  0  0  0
182183  2  0  0  0  0
182186  1  0  0  0  0
183184  1  0  0  0  0
183277  1  0  0  0  0
184209  1  0  0  0  0
184185  2  0  0  0  0
185176  1  0  0  0  0
185278  1  0  0  0  0
186165  1  0  0  0  0
187165  1  0  0  0  0
188174  1  0  0  0  0
188190  2  0  0  0  0
193194  1  0  0  0  0
193195  1  0  0  0  0
193196  1  0  0  0  0
194262  1  0  0  0  0
194263  1  0  0  0  0
194264  1  0  0  0  0
195268  1  0  0  0  0
195269  1  0  0  0  0
195270  1  0  0  0  0
196265  1  0  0  0  0
196266  1  0  0  0  0
196267  1  0  0  0  0
197198  1  0  0  0  0
197199  1  0  0  0  0
197200  1  0  0  0  0
198238  1  0  0  0  0
198239  1  0  0  0  0
198240  1  0  0  0  0
199235  1  0  0  0  0
199236  1  0  0  0  0
199237  1  0  0  0  0
200241  1  0  0  0  0
200242  1  0  0  0  0
200243  1  0  0  0  0
201202  1  0  0  0  0
201203  1  0  0  0  0
201204  1  0  0  0  0
202250  1  0  0  0  0
202251  1  0  0  0  0
202252  1  0  0  0  0
203247  1  0  0  0  0
203248  1  0  0  0  0
203249  1  0  0  0  0
204244  1  0  0  0  0
204245  1  0  0  0  0
204246  1  0  0  0  0
205206  1  0  0  0  0
205207  1  0  0  0  0
205208  1  0  0  0  0
206253  1  0  0  0  0
206254  1  0  0  0  0
206255  1  0  0  0  0
207256  1  0  0  0  0
207257  1  0  0  0  0
207258  1  0  0  0  0
208259  1  0  0  0  0
208260  1  0  0  0  0
208261  1  0  0  0  0
209210  1  0  0  0  0
209211  1  0  0  0  0
209212  1  0  0  0  0
210232  1  0  0  0  0
210233  1  0  0  0  0
210234  1  0  0  0  0
211226  1  0  0  0  0
211227  1  0  0  0  0
211228  1  0  0  0  0
212229  1  0  0  0  0
212230  1  0  0  0  0
212231  1  0  0  0  0
213214  1  0  0  0  0
213215  1  0  0  0  0
213216  1  0  0  0  0
214220  1  0  0  0  0
214221  1  0  0  0  0
214222  1  0  0  0  0
215217  1  0  0  0  0
215218  1  0  0  0  0
215219  1  0  0  0  0
216223  1  0  0  0  0
216224  1  0  0  0  0
216225  1  0  0  0  0
M  CHG  2  24  -1 165  -1
M  END
