 energy: -55.758973904079 gnorm: 0.000670056145 xtb: 6.7.1 (edcfbbe)
          03062511103D

302324  0     0  0            999 V2000
    2.0203    1.0275    0.5976 C   0  0  0  0  0  0  0  0  0  0  0  0
    1.6959   -0.2599    1.0203 C   0  0  0  0  0  0  0  0  0  0  0  0
    2.7363   -1.1279    1.5026 C   0  0  0  0  0  0  0  0  0  0  0  0
    4.0404   -0.5680    1.6193 C   0  0  0  0  0  0  0  0  0  0  0  0
    4.2962    0.7249    1.1329 C   0  0  0  0  0  0  0  0  0  0  0  0
    3.3119    1.5407    0.6451 C   0  0  0  0  0  0  0  0  0  0  0  0
    2.5680   -2.4900    1.9724 C   0  0  0  0  0  0  0  0  0  0  0  0
    3.5805   -2.9661    2.8349 C   0  0  0  0  0  0  0  0  0  0  0  0
    4.8189   -2.2816    2.9448 C   0  0  0  0  0  0  0  0  0  0  0  0
    5.0788   -1.1601    2.2536 N   0  0  0  0  0  0  0  0  0  0  0  0
    1.5206   -3.4256    1.6902 C   0  0  0  0  0  0  0  0  0  0  0  0
    1.3925   -4.5587    2.5490 C   0  0  0  0  0  0  0  0  0  0  0  0
    2.2661   -4.8746    3.5280 N   0  0  0  0  0  0  0  0  0  0  0  0
    3.3799   -4.1334    3.6172 C   0  0  0  0  0  0  0  0  0  0  0  0
    4.3726   -4.5255    4.5286 C   0  0  0  0  0  0  0  0  0  0  0  0
    5.5783   -3.8592    4.6462 C   0  0  0  0  0  0  0  0  0  0  0  0
    5.7950   -2.7621    3.8308 C   0  0  0  0  0  0  0  0  0  0  0  0
    0.6214   -3.3576    0.5574 C   0  0  0  0  0  0  0  0  0  0  0  0
   -0.4455   -4.2828    0.4895 C   0  0  0  0  0  0  0  0  0  0  0  0
   -0.6304   -5.3047    1.3968 C   0  0  0  0  0  0  0  0  0  0  0  0
    0.3161   -5.4475    2.3869 C   0  0  0  0  0  0  0  0  0  0  0  0
    0.3401   -0.5825    1.0057 O   0  0  0  0  0  0  0  0  0  0  0  0
   -3.8120   -2.4322   -0.3600 C   0  0  0  0  0  0  0  0  0  0  0  0
   -2.8929   -1.5233    0.1615 C   0  0  0  0  0  0  0  0  0  0  0  0
   -3.3627   -0.3153    0.7657 C   0  0  0  0  0  0  0  0  0  0  0  0
   -4.7347   -0.3193    1.1651 C   0  0  0  0  0  0  0  0  0  0  0  0
   -5.6176   -1.2700    0.6121 C   0  0  0  0  0  0  0  0  0  0  0  0
   -5.1861   -2.2874   -0.2024 C   0  0  0  0  0  0  0  0  0  0  0  0
   -2.5613    0.8493    1.0882 C   0  0  0  0  0  0  0  0  0  0  0  0
   -3.1011    1.6539    2.1191 C   0  0  0  0  0  0  0  0  0  0  0  0
   -4.3872    1.3771    2.6695 C   0  0  0  0  0  0  0  0  0  0  0  0
   -5.2309    0.4807    2.1307 N   0  0  0  0  0  0  0  0  0  0  0  0
   -1.5061    1.4438    0.3025 C   0  0  0  0  0  0  0  0  0  0  0  0
   -1.1611    2.7961    0.6387 C   0  0  0  0  0  0  0  0  0  0  0  0
   -1.4206    3.3650    1.8437 N   0  0  0  0  0  0  0  0  0  0  0  0
   -2.4284    2.8286    2.5540 C   0  0  0  0  0  0  0  0  0  0  0  0
   -2.9612    3.5728    3.6230 C   0  0  0  0  0  0  0  0  0  0  0  0
   -4.1820    3.2737    4.2028 C   0  0  0  0  0  0  0  0  0  0  0  0
   -4.8776    2.1855    3.7064 C   0  0  0  0  0  0  0  0  0  0  0  0
   -0.9925    0.9631   -0.9804 C   0  0  0  0  0  0  0  0  0  0  0  0
   -0.6212    1.9243   -1.9510 C   0  0  0  0  0  0  0  0  0  0  0  0
   -0.4797    3.2667   -1.6672 C   0  0  0  0  0  0  0  0  0  0  0  0
   -0.6675    3.6631   -0.3574 C   0  0  0  0  0  0  0  0  0  0  0  0
   -1.5838   -1.9460    0.2213 O   0  0  0  0  0  0  0  0  0  0  0  0
   -0.3181   -1.2852   -0.1265 B   0  0  0  0  0  0  0  0  0  0  0  0
    0.7148   -2.3967   -0.4510 N   0  0  0  0  0  0  0  0  0  0  0  0
    2.1179   -3.0761   -2.3415 C   0  0  0  0  0  0  0  0  0  0  0  0
    1.9095   -2.1151   -1.1901 C   0  0  0  0  0  0  0  0  0  0  0  0
   -0.7011   -0.3449   -1.2706 N   0  0  0  0  0  0  0  0  0  0  0  0
   -1.2977   -2.2322   -2.7459 C   0  0  0  0  0  0  0  0  0  0  0  0
   -0.6758   -0.8606   -2.6084 C   0  0  0  0  0  0  0  0  0  0  0  0
   -4.8606    4.2409    5.1865 C   0  0  0  0  0  0  0  0  0  0  0  0
   -5.7653    3.4724    6.1689 C   0  0  0  0  0  0  0  0  0  0  0  0
   -3.8222    5.0224    6.0090 C   0  0  0  0  0  0  0  0  0  0  0  0
   -5.7139    5.2363    4.3832 C   0  0  0  0  0  0  0  0  0  0  0  0
   -0.1483    4.2556   -2.7973 C   0  0  0  0  0  0  0  0  0  0  0  0
   -1.2763    4.2023   -3.8443 C   0  0  0  0  0  0  0  0  0  0  0  0
   -0.0382    5.7010   -2.2757 C   0  0  0  0  0  0  0  0  0  0  0  0
    1.1857    3.8767   -3.4657 C   0  0  0  0  0  0  0  0  0  0  0  0
   -6.1880   -3.2868   -0.7964 C   0  0  0  0  0  0  0  0  0  0  0  0
   -7.3818   -2.5263   -1.4057 C   0  0  0  0  0  0  0  0  0  0  0  0
   -5.5443   -4.1305   -1.9140 C   0  0  0  0  0  0  0  0  0  0  0  0
   -6.6885   -4.2240    0.3146 C   0  0  0  0  0  0  0  0  0  0  0  0
   -1.7736   -6.3232    1.2716 C   0  0  0  0  0  0  0  0  0  0  0  0
   -1.2315   -7.5980    0.6057 C   0  0  0  0  0  0  0  0  0  0  0  0
   -2.3396   -6.6703    2.6630 C   0  0  0  0  0  0  0  0  0  0  0  0
   -2.9287   -5.7626    0.4249 C   0  0  0  0  0  0  0  0  0  0  0  0
    6.6077   -4.3280    5.6840 C   0  0  0  0  0  0  0  0  0  0  0  0
    7.8883   -3.4722    5.6484 C   0  0  0  0  0  0  0  0  0  0  0  0
    5.9908   -4.2122    7.0870 C   0  0  0  0  0  0  0  0  0  0  0  0
    6.9898   -5.7923    5.4035 C   0  0  0  0  0  0  0  0  0  0  0  0
    3.6718    2.9510    0.1574 C   0  0  0  0  0  0  0  0  0  0  0  0
    4.7306    3.5941    1.0774 C   0  0  0  0  0  0  0  0  0  0  0  0
    4.8989    4.6358    0.8050 H   0  0  0  0  0  0  0  0  0  0  0  0
    5.6902    3.0843    1.0073 H   0  0  0  0  0  0  0  0  0  0  0  0
    4.4063    3.5671    2.1171 H   0  0  0  0  0  0  0  0  0  0  0  0
    4.2286    2.8468   -1.2715 C   0  0  0  0  0  0  0  0  0  0  0  0
    5.1398    2.2496   -1.2895 H   0  0  0  0  0  0  0  0  0  0  0  0
    4.4614    3.8318   -1.6750 H   0  0  0  0  0  0  0  0  0  0  0  0
    3.5070    2.3665   -1.9317 H   0  0  0  0  0  0  0  0  0  0  0  0
    2.4389    3.8644    0.1633 C   0  0  0  0  0  0  0  0  0  0  0  0
    1.9680    3.8741    1.1452 H   0  0  0  0  0  0  0  0  0  0  0  0
    1.7099    3.5209   -0.5642 H   0  0  0  0  0  0  0  0  0  0  0  0
    2.7068    4.8887   -0.0949 H   0  0  0  0  0  0  0  0  0  0  0  0
    7.6687   -2.4290    5.8741 H   0  0  0  0  0  0  0  0  0  0  0  0
    8.3675   -3.5233    4.6711 H   0  0  0  0  0  0  0  0  0  0  0  0
    8.6077   -3.8230    6.3880 H   0  0  0  0  0  0  0  0  0  0  0  0
    5.6972   -3.1834    7.2935 H   0  0  0  0  0  0  0  0  0  0  0  0
    6.7006   -4.5208    7.8536 H   0  0  0  0  0  0  0  0  0  0  0  0
    5.1026   -4.8346    7.1856 H   0  0  0  0  0  0  0  0  0  0  0  0
    1.1650    2.8593   -3.8536 H   0  0  0  0  0  0  0  0  0  0  0  0
    2.0095    3.9520   -2.7590 H   0  0  0  0  0  0  0  0  0  0  0  0
    1.4042    4.5444   -4.2987 H   0  0  0  0  0  0  0  0  0  0  0  0
   -0.9720    6.0240   -1.8164 H   0  0  0  0  0  0  0  0  0  0  0  0
    0.1839    6.3895   -3.0906 H   0  0  0  0  0  0  0  0  0  0  0  0
    0.7594    5.7953   -1.5397 H   0  0  0  0  0  0  0  0  0  0  0  0
   -2.2346    4.4525   -3.3898 H   0  0  0  0  0  0  0  0  0  0  0  0
   -1.3630    3.2078   -4.2802 H   0  0  0  0  0  0  0  0  0  0  0  0
   -1.0917    4.9073   -4.6544 H   0  0  0  0  0  0  0  0  0  0  0  0
   -6.4726    4.7143    3.8009 H   0  0  0  0  0  0  0  0  0  0  0  0
   -5.0940    5.8048    3.6904 H   0  0  0  0  0  0  0  0  0  0  0  0
   -6.2186    5.9409    5.0436 H   0  0  0  0  0  0  0  0  0  0  0  0
   -3.1609    4.3349    6.5279 H   0  0  0  0  0  0  0  0  0  0  0  0
   -4.3069    5.6461    6.7596 H   0  0  0  0  0  0  0  0  0  0  0  0
   -3.2170    5.6766    5.3835 H   0  0  0  0  0  0  0  0  0  0  0  0
   -5.2120    2.6643    6.6410 H   0  0  0  0  0  0  0  0  0  0  0  0
   -6.6313    3.0419    5.6688 H   0  0  0  0  0  0  0  0  0  0  0  0
   -6.1363    4.1293    6.9550 H   0  0  0  0  0  0  0  0  0  0  0  0
   -5.1084   -3.4916   -2.6817 H   0  0  0  0  0  0  0  0  0  0  0  0
   -6.2864   -4.7693   -2.3925 H   0  0  0  0  0  0  0  0  0  0  0  0
   -4.7635   -4.7803   -1.5230 H   0  0  0  0  0  0  0  0  0  0  0  0
   -7.1767   -3.6612    1.1092 H   0  0  0  0  0  0  0  0  0  0  0  0
   -5.8617   -4.7790    0.7558 H   0  0  0  0  0  0  0  0  0  0  0  0
   -7.4064   -4.9445   -0.0765 H   0  0  0  0  0  0  0  0  0  0  0  0
   -7.0411   -1.8145   -2.1571 H   0  0  0  0  0  0  0  0  0  0  0  0
   -7.9359   -1.9761   -0.6469 H   0  0  0  0  0  0  0  0  0  0  0  0
   -8.0776   -3.2147   -1.8848 H   0  0  0  0  0  0  0  0  0  0  0  0
    7.4029   -5.8967    4.4007 H   0  0  0  0  0  0  0  0  0  0  0  0
    6.1247   -6.4494    5.4797 H   0  0  0  0  0  0  0  0  0  0  0  0
    7.7369   -6.1430    6.1152 H   0  0  0  0  0  0  0  0  0  0  0  0
    6.7159   -2.2135    3.8887 H   0  0  0  0  0  0  0  0  0  0  0  0
    4.1721   -5.3825    5.1444 H   0  0  0  0  0  0  0  0  0  0  0  0
    5.3083    1.0783    1.1964 H   0  0  0  0  0  0  0  0  0  0  0  0
    0.2632   -6.2845    3.0573 H   0  0  0  0  0  0  0  0  0  0  0  0
    1.2158    1.6389    0.2407 H   0  0  0  0  0  0  0  0  0  0  0  0
   -1.1416   -4.1626   -0.3168 H   0  0  0  0  0  0  0  0  0  0  0  0
   -3.4215   -3.3020   -0.8508 H   0  0  0  0  0  0  0  0  0  0  0  0
   -0.3533    1.5880   -2.9345 H   0  0  0  0  0  0  0  0  0  0  0  0
   -6.6562   -1.1966    0.8770 H   0  0  0  0  0  0  0  0  0  0  0  0
   -0.5233    4.6900   -0.0781 H   0  0  0  0  0  0  0  0  0  0  0  0
   -5.8629    1.9649    4.0717 H   0  0  0  0  0  0  0  0  0  0  0  0
   -2.4253    4.4523    3.9238 H   0  0  0  0  0  0  0  0  0  0  0  0
   -1.6036   -7.1821    3.2808 H   0  0  0  0  0  0  0  0  0  0  0  0
   -3.2046   -7.3276    2.5774 H   0  0  0  0  0  0  0  0  0  0  0  0
   -2.6558   -5.7685    3.1852 H   0  0  0  0  0  0  0  0  0  0  0  0
   -2.6202   -5.6000   -0.6069 H   0  0  0  0  0  0  0  0  0  0  0  0
   -3.2802   -4.8192    0.8406 H   0  0  0  0  0  0  0  0  0  0  0  0
   -3.7697   -6.4557    0.4080 H   0  0  0  0  0  0  0  0  0  0  0  0
   -0.4272   -8.0337    1.1980 H   0  0  0  0  0  0  0  0  0  0  0  0
   -0.8352   -7.3771   -0.3850 H   0  0  0  0  0  0  0  0  0  0  0  0
   -2.0157   -8.3470    0.4980 H   0  0  0  0  0  0  0  0  0  0  0  0
    0.3574   -0.8507   -2.9683 H   0  0  0  0  0  0  0  0  0  0  0  0
   -1.2211   -0.1648   -3.2555 H   0  0  0  0  0  0  0  0  0  0  0  0
   -0.8240   -2.9442   -2.0723 H   0  0  0  0  0  0  0  0  0  0  0  0
   -1.2145   -2.6256   -3.7616 H   0  0  0  0  0  0  0  0  0  0  0  0
   -2.3570   -2.2019   -2.4915 H   0  0  0  0  0  0  0  0  0  0  0  0
    2.7619   -2.1781   -0.5079 H   0  0  0  0  0  0  0  0  0  0  0  0
    1.8767   -1.0746   -1.5287 H   0  0  0  0  0  0  0  0  0  0  0  0
    2.1481   -4.1065   -1.9832 H   0  0  0  0  0  0  0  0  0  0  0  0
    3.0513   -2.8816   -2.8743 H   0  0  0  0  0  0  0  0  0  0  0  0
    1.3070   -3.0145   -3.0672 H   0  0  0  0  0  0  0  0  0  0  0  0
    1.0139    2.0861    9.2956 C   0  0  0  0  0  0  0  0  0  0  0  0
    1.3724    0.8450    8.7641 C   0  0  0  0  0  0  0  0  0  0  0  0
    2.6435    0.2596    9.1476 C   0  0  0  0  0  0  0  0  0  0  0  0
    3.5077    1.0973    9.9205 C   0  0  0  0  0  0  0  0  0  0  0  0
    3.0834    2.3644   10.3600 C   0  0  0  0  0  0  0  0  0  0  0  0
    1.8302    2.8501   10.1158 C   0  0  0  0  0  0  0  0  0  0  0  0
    3.1162   -1.1055    8.9408 C   0  0  0  0  0  0  0  0  0  0  0  0
    4.2779   -1.4946    9.6463 C   0  0  0  0  0  0  0  0  0  0  0  0
    5.1064   -0.5253   10.2654 C   0  0  0  0  0  0  0  0  0  0  0  0
    4.7485    0.7622   10.3478 N   0  0  0  0  0  0  0  0  0  0  0  0
    2.5323   -2.1680    8.1767 C   0  0  0  0  0  0  0  0  0  0  0  0
    2.8537   -3.5203    8.5107 C   0  0  0  0  0  0  0  0  0  0  0  0
    3.9111   -3.8686    9.2676 N   0  0  0  0  0  0  0  0  0  0  0  0
    4.6663   -2.8623    9.7366 C   0  0  0  0  0  0  0  0  0  0  0  0
    5.8753   -3.1924   10.3693 C   0  0  0  0  0  0  0  0  0  0  0  0
    6.7245   -2.2403   10.8991 C   0  0  0  0  0  0  0  0  0  0  0  0
    6.3219   -0.9177   10.8472 C   0  0  0  0  0  0  0  0  0  0  0  0
    1.6413   -1.9832    7.0622 C   0  0  0  0  0  0  0  0  0  0  0  0
    0.8338   -3.0704    6.6604 C   0  0  0  0  0  0  0  0  0  0  0  0
    1.0131   -4.3532    7.1343 C   0  0  0  0  0  0  0  0  0  0  0  0
    2.0620   -4.5689    8.0053 C   0  0  0  0  0  0  0  0  0  0  0  0
    0.3664    0.3638    7.9210 O   0  0  0  0  0  0  0  0  0  0  0  0
   -2.9386   -1.6184    5.4925 C   0  0  0  0  0  0  0  0  0  0  0  0
   -2.1822   -0.6959    6.2134 C   0  0  0  0  0  0  0  0  0  0  0  0
   -2.8412    0.4301    6.8241 C   0  0  0  0  0  0  0  0  0  0  0  0
   -4.2512    0.2546    7.0265 C   0  0  0  0  0  0  0  0  0  0  0  0
   -4.9608   -0.6877    6.2500 C   0  0  0  0  0  0  0  0  0  0  0  0
   -4.3238   -1.5773    5.4212 C   0  0  0  0  0  0  0  0  0  0  0  0
   -2.2540    1.6684    7.3286 C   0  0  0  0  0  0  0  0  0  0  0  0
   -3.0136    2.3049    8.3343 C   0  0  0  0  0  0  0  0  0  0  0  0
   -4.2820    1.7889    8.7325 C   0  0  0  0  0  0  0  0  0  0  0  0
   -4.9465    0.8756    8.0034 N   0  0  0  0  0  0  0  0  0  0  0  0
   -1.1827    2.4599    6.7801 C   0  0  0  0  0  0  0  0  0  0  0  0
   -1.0248    3.7994    7.2558 C   0  0  0  0  0  0  0  0  0  0  0  0
   -1.5939    4.2664    8.3894 N   0  0  0  0  0  0  0  0  0  0  0  0
   -2.5769    3.5245    8.9222 C   0  0  0  0  0  0  0  0  0  0  0  0
   -3.2811    4.0449   10.0205 C   0  0  0  0  0  0  0  0  0  0  0  0
   -4.4349    3.4605   10.5084 C   0  0  0  0  0  0  0  0  0  0  0  0
   -4.9407    2.3647    9.8307 C   0  0  0  0  0  0  0  0  0  0  0  0
   -0.3748    2.1096    5.6320 C   0  0  0  0  0  0  0  0  0  0  0  0
    0.2106    3.1339    4.8527 C   0  0  0  0  0  0  0  0  0  0  0  0
    0.2818    4.4411    5.2825 C   0  0  0  0  0  0  0  0  0  0  0  0
   -0.2914    4.7386    6.5018 C   0  0  0  0  0  0  0  0  0  0  0  0
   -0.8729   -1.0762    6.3903 O   0  0  0  0  0  0  0  0  0  0  0  0
    0.2398   -0.1470    6.5156 B   0  0  0  0  0  0  0  0  0  0  0  0
    1.6013   -0.8131    6.3332 N   0  0  0  0  0  0  0  0  0  0  0  0
    3.6900   -0.4757    5.1231 C   0  0  0  0  0  0  0  0  0  0  0  0
    2.6923    0.0832    6.1047 C   0  0  0  0  0  0  0  0  0  0  0  0
   -0.0023    0.8278    5.3540 N   0  0  0  0  0  0  0  0  0  0  0  0
    0.1461   -1.1058    3.8155 C   0  0  0  0  0  0  0  0  0  0  0  0
    0.2978    0.3847    4.0224 C   0  0  0  0  0  0  0  0  0  0  0  0
   -5.1448    4.0791   11.7207 C   0  0  0  0  0  0  0  0  0  0  0  0
   -6.3389    3.2204   12.1800 C   0  0  0  0  0  0  0  0  0  0  0  0
   -4.1506    4.1881   12.8924 C   0  0  0  0  0  0  0  0  0  0  0  0
   -5.6605    5.4790   11.3446 C   0  0  0  0  0  0  0  0  0  0  0  0
    1.0311    5.4836    4.4399 C   0  0  0  0  0  0  0  0  0  0  0  0
    0.3213    5.6495    3.0856 C   0  0  0  0  0  0  0  0  0  0  0  0
    1.0764    6.8554    5.1391 C   0  0  0  0  0  0  0  0  0  0  0  0
    2.4773    5.0057    4.2118 C   0  0  0  0  0  0  0  0  0  0  0  0
   -5.0895   -2.5983    4.5721 C   0  0  0  0  0  0  0  0  0  0  0  0
   -6.4196   -1.9976    4.0795 C   0  0  0  0  0  0  0  0  0  0  0  0
   -4.2570   -2.9988    3.3365 C   0  0  0  0  0  0  0  0  0  0  0  0
   -5.3710   -3.8482    5.4196 C   0  0  0  0  0  0  0  0  0  0  0  0
    0.1130   -5.5208    6.7083 C   0  0  0  0  0  0  0  0  0  0  0  0
    0.9624   -6.5909    6.0013 C   0  0  0  0  0  0  0  0  0  0  0  0
   -0.5499   -6.1280    7.9576 C   0  0  0  0  0  0  0  0  0  0  0  0
   -1.0003   -5.0552    5.7512 C   0  0  0  0  0  0  0  0  0  0  0  0
    8.0581   -2.6774   11.5219 C   0  0  0  0  0  0  0  0  0  0  0  0
    8.8711   -1.4725   12.0321 C   0  0  0  0  0  0  0  0  0  0  0  0
    7.7819   -3.6179   12.7087 C   0  0  0  0  0  0  0  0  0  0  0  0
    8.8950   -3.4139   10.4591 C   0  0  0  0  0  0  0  0  0  0  0  0
    1.3418    4.1741   10.7238 C   0  0  0  0  0  0  0  0  0  0  0  0
    2.3141    4.7041   11.7963 C   0  0  0  0  0  0  0  0  0  0  0  0
    1.9209    5.6085   12.2603 H   0  0  0  0  0  0  0  0  0  0  0  0
    3.2820    4.9548   11.3633 H   0  0  0  0  0  0  0  0  0  0  0  0
    2.4666    3.9666   12.5839 H   0  0  0  0  0  0  0  0  0  0  0  0
    1.2206    5.2277    9.6151 C   0  0  0  0  0  0  0  0  0  0  0  0
    2.1777    5.3808    9.1170 H   0  0  0  0  0  0  0  0  0  0  0  0
    0.8865    6.1843   10.0160 H   0  0  0  0  0  0  0  0  0  0  0  0
    0.5007    4.9090    8.8677 H   0  0  0  0  0  0  0  0  0  0  0  0
   -0.0266    3.9535   11.3933 C   0  0  0  0  0  0  0  0  0  0  0  0
    0.0454    3.2027   12.1798 H   0  0  0  0  0  0  0  0  0  0  0  0
   -0.7654    3.6102   10.6734 H   0  0  0  0  0  0  0  0  0  0  0  0
   -0.3987    4.8761   11.8378 H   0  0  0  0  0  0  0  0  0  0  0  0
    8.3286   -0.9336   12.8084 H   0  0  0  0  0  0  0  0  0  0  0  0
    9.0956   -0.7799   11.2214 H   0  0  0  0  0  0  0  0  0  0  0  0
    9.8190   -1.7989   12.4593 H   0  0  0  0  0  0  0  0  0  0  0  0
    7.1701   -3.1193   13.4600 H   0  0  0  0  0  0  0  0  0  0  0  0
    8.7117   -3.9308   13.1832 H   0  0  0  0  0  0  0  0  0  0  0  0
    7.2531   -4.5147   12.3887 H   0  0  0  0  0  0  0  0  0  0  0  0
    2.5023    4.0591    3.6741 H   0  0  0  0  0  0  0  0  0  0  0  0
    2.9894    4.8622    5.1630 H   0  0  0  0  0  0  0  0  0  0  0  0
    3.0420    5.7341    3.6301 H   0  0  0  0  0  0  0  0  0  0  0  0
    0.0723    7.2470    5.3005 H   0  0  0  0  0  0  0  0  0  0  0  0
    1.6189    7.5804    4.5325 H   0  0  0  0  0  0  0  0  0  0  0  0
    1.5807    6.7874    6.1028 H   0  0  0  0  0  0  0  0  0  0  0  0
   -0.6949    6.0168    3.2239 H   0  0  0  0  0  0  0  0  0  0  0  0
    0.2620    4.7000    2.5574 H   0  0  0  0  0  0  0  0  0  0  0  0
    0.8515    6.3566    2.4481 H   0  0  0  0  0  0  0  0  0  0  0  0
   -6.3530    5.4211   10.5051 H   0  0  0  0  0  0  0  0  0  0  0  0
   -4.8413    6.1368   11.0570 H   0  0  0  0  0  0  0  0  0  0  0  0
   -6.1824    5.9407   12.1825 H   0  0  0  0  0  0  0  0  0  0  0  0
   -3.7491    3.2078   13.1480 H   0  0  0  0  0  0  0  0  0  0  0  0
   -4.6358    4.5957   13.7789 H   0  0  0  0  0  0  0  0  0  0  0  0
   -3.3128    4.8383   12.6448 H   0  0  0  0  0  0  0  0  0  0  0  0
   -6.0200    2.2076   12.4254 H   0  0  0  0  0  0  0  0  0  0  0  0
   -7.1048    3.1645   11.4071 H   0  0  0  0  0  0  0  0  0  0  0  0
   -6.8023    3.6468   13.0695 H   0  0  0  0  0  0  0  0  0  0  0  0
   -3.9344   -2.1158    2.7874 H   0  0  0  0  0  0  0  0  0  0  0  0
   -4.8389   -3.6239    2.6608 H   0  0  0  0  0  0  0  0  0  0  0  0
   -3.3683   -3.5623    3.6148 H   0  0  0  0  0  0  0  0  0  0  0  0
   -5.9695   -3.5959    6.2945 H   0  0  0  0  0  0  0  0  0  0  0  0
   -4.4409   -4.2962    5.7689 H   0  0  0  0  0  0  0  0  0  0  0  0
   -5.9119   -4.5979    4.8425 H   0  0  0  0  0  0  0  0  0  0  0  0
   -6.2454   -1.0597    3.5541 H   0  0  0  0  0  0  0  0  0  0  0  0
   -7.1012   -1.8023    4.9058 H   0  0  0  0  0  0  0  0  0  0  0  0
   -6.9241   -2.6790    3.3953 H   0  0  0  0  0  0  0  0  0  0  0  0
    9.0754   -2.7709    9.5979 H   0  0  0  0  0  0  0  0  0  0  0  0
    8.3875   -4.3108   10.1061 H   0  0  0  0  0  0  0  0  0  0  0  0
    9.8608   -3.7159   10.8635 H   0  0  0  0  0  0  0  0  0  0  0  0
    6.9303   -0.1463   11.2800 H   0  0  0  0  0  0  0  0  0  0  0  0
    6.1399   -4.2323   10.4226 H   0  0  0  0  0  0  0  0  0  0  0  0
    3.7762    2.9246   10.9599 H   0  0  0  0  0  0  0  0  0  0  0  0
    2.2870   -5.5663    8.3351 H   0  0  0  0  0  0  0  0  0  0  0  0
    0.0472    2.4639    9.0243 H   0  0  0  0  0  0  0  0  0  0  0  0
    0.0654   -2.8747    5.9397 H   0  0  0  0  0  0  0  0  0  0  0  0
   -2.4163   -2.4359    5.0344 H   0  0  0  0  0  0  0  0  0  0  0  0
    0.7019    2.8638    3.9368 H   0  0  0  0  0  0  0  0  0  0  0  0
   -6.0289   -0.7193    6.3601 H   0  0  0  0  0  0  0  0  0  0  0  0
   -0.2476    5.7415    6.8826 H   0  0  0  0  0  0  0  0  0  0  0  0
   -5.8818    1.9349   10.1177 H   0  0  0  0  0  0  0  0  0  0  0  0
   -2.9175    4.9556   10.4596 H   0  0  0  0  0  0  0  0  0  0  0  0
    0.1949   -6.5136    8.6525 H   0  0  0  0  0  0  0  0  0  0  0  0
   -1.2125   -6.9499    7.6874 H   0  0  0  0  0  0  0  0  0  0  0  0
   -1.1395   -5.3764    8.4821 H   0  0  0  0  0  0  0  0  0  0  0  0
   -0.5843   -4.6306    4.8383 H   0  0  0  0  0  0  0  0  0  0  0  0
   -1.6301   -4.3046    6.2273 H   0  0  0  0  0  0  0  0  0  0  0  0
   -1.6409   -5.8901    5.4697 H   0  0  0  0  0  0  0  0  0  0  0  0
    1.7115   -7.0090    6.6723 H   0  0  0  0  0  0  0  0  0  0  0  0
    1.4845   -6.1624    5.1482 H   0  0  0  0  0  0  0  0  0  0  0  0
    0.3403   -7.4106    5.6428 H   0  0  0  0  0  0  0  0  0  0  0  0
    1.3078    0.7124    3.7555 H   0  0  0  0  0  0  0  0  0  0  0  0
   -0.3783    0.9175    3.3421 H   0  0  0  0  0  0  0  0  0  0  0  0
    0.9003   -1.6612    4.3715 H   0  0  0  0  0  0  0  0  0  0  0  0
    0.2321   -1.3960    2.7700 H   0  0  0  0  0  0  0  0  0  0  0  0
   -0.8312   -1.4391    4.1533 H   0  0  0  0  0  0  0  0  0  0  0  0
    3.1884    0.3093    7.0490 H   0  0  0  0  0  0  0  0  0  0  0  0
    2.2859    1.0392    5.7573 H   0  0  0  0  0  0  0  0  0  0  0  0
    4.0959   -1.4217    5.4847 H   0  0  0  0  0  0  0  0  0  0  0  0
    4.5267    0.2032    4.9450 H   0  0  0  0  0  0  0  0  0  0  0  0
    3.2148   -0.6756    4.1634 H   0  0  0  0  0  0  0  0  0  0  0  0
  1  2  2  0  0  0  0
  1125  1  0  0  0  0
  2  3  1  0  0  0  0
  3  4  2  0  0  0  0
  3  7  1  0  0  0  0
  4  5  1  0  0  0  0
  5  6  2  0  0  0  0
  5123  1  0  0  0  0
  6  1  1  0  0  0  0
  6 72  1  0  0  0  0
  7  8  1  0  0  0  0
  7 11  2  0  0  0  0
  8  9  1  0  0  0  0
  9 10  2  0  0  0  0
 10  4  1  0  0  0  0
 11 12  1  0  0  0  0
 11 18  1  0  0  0  0
 12 13  2  0  0  0  0
 13 14  1  0  0  0  0
 14  8  1  0  0  0  0
 14 15  2  0  0  0  0
 15 16  1  0  0  0  0
 15122  1  0  0  0  0
 16 68  1  0  0  0  0
 16 17  2  0  0  0  0
 17  9  1  0  0  0  0
 17121  1  0  0  0  0
 18 46  1  0  0  0  0
 18 19  2  0  0  0  0
 19 20  1  0  0  0  0
 19126  1  0  0  0  0
 20 64  1  0  0  0  0
 20 21  2  0  0  0  0
 21 12  1  0  0  0  0
 21124  1  0  0  0  0
 22  2  1  0  0  0  0
 23 24  2  0  0  0  0
 23127  1  0  0  0  0
 24 25  1  0  0  0  0
 24 44  1  0  0  0  0
 25 26  2  0  0  0  0
 25 29  1  0  0  0  0
 26 27  1  0  0  0  0
 27 28  2  0  0  0  0
 27129  1  0  0  0  0
 28 60  1  0  0  0  0
 28 23  1  0  0  0  0
 29 33  2  0  0  0  0
 30 29  1  0  0  0  0
 30 31  1  0  0  0  0
 31 32  2  0  0  0  0
 32 26  1  0  0  0  0
 33 34  1  0  0  0  0
 33 40  1  0  0  0  0
 34 35  2  0  0  0  0
 35 36  1  0  0  0  0
 36 30  1  0  0  0  0
 36 37  2  0  0  0  0
 37 38  1  0  0  0  0
 37132  1  0  0  0  0
 38 52  1  0  0  0  0
 38 39  2  0  0  0  0
 39 31  1  0  0  0  0
 39131  1  0  0  0  0
 40 49  1  0  0  0  0
 40 41  2  0  0  0  0
 41 42  1  0  0  0  0
 41128  1  0  0  0  0
 42 56  1  0  0  0  0
 42 43  2  0  0  0  0
 43 34  1  0  0  0  0
 43130  1  0  0  0  0
 45 46  1  0  0  0  0
 45 49  1  0  0  0  0
 45 22  1  0  0  0  0
 45 44  1  0  0  0  0
 46 48  1  0  0  0  0
 47 48  1  0  0  0  0
 47149  1  0  0  0  0
 47150  1  0  0  0  0
 47151  1  0  0  0  0
 48147  1  0  0  0  0
 48148  1  0  0  0  0
 49 51  1  0  0  0  0
 50 51  1  0  0  0  0
 50144  1  0  0  0  0
 50145  1  0  0  0  0
 50146  1  0  0  0  0
 51142  1  0  0  0  0
 51143  1  0  0  0  0
 52 53  1  0  0  0  0
 52 54  1  0  0  0  0
 52 55  1  0  0  0  0
 53106  1  0  0  0  0
 53107  1  0  0  0  0
 53108  1  0  0  0  0
 54103  1  0  0  0  0
 54104  1  0  0  0  0
 54105  1  0  0  0  0
 55100  1  0  0  0  0
 55101  1  0  0  0  0
 55102  1  0  0  0  0
 56 57  1  0  0  0  0
 56 58  1  0  0  0  0
 56 59  1  0  0  0  0
 57 97  1  0  0  0  0
 57 98  1  0  0  0  0
 57 99  1  0  0  0  0
 58 94  1  0  0  0  0
 58 95  1  0  0  0  0
 58 96  1  0  0  0  0
 59 91  1  0  0  0  0
 59 92  1  0  0  0  0
 59 93  1  0  0  0  0
 60 61  1  0  0  0  0
 60 62  1  0  0  0  0
 60 63  1  0  0  0  0
 61115  1  0  0  0  0
 61116  1  0  0  0  0
 61117  1  0  0  0  0
 62109  1  0  0  0  0
 62110  1  0  0  0  0
 62111  1  0  0  0  0
 63112  1  0  0  0  0
 63113  1  0  0  0  0
 63114  1  0  0  0  0
 64 65  1  0  0  0  0
 64 66  1  0  0  0  0
 64 67  1  0  0  0  0
 65139  1  0  0  0  0
 65140  1  0  0  0  0
 65141  1  0  0  0  0
 66133  1  0  0  0  0
 66134  1  0  0  0  0
 66135  1  0  0  0  0
 67136  1  0  0  0  0
 67137  1  0  0  0  0
 67138  1  0  0  0  0
 68 69  1  0  0  0  0
 68 70  1  0  0  0  0
 68 71  1  0  0  0  0
 69 85  1  0  0  0  0
 69 86  1  0  0  0  0
 69 87  1  0  0  0  0
 70 88  1  0  0  0  0
 70 89  1  0  0  0  0
 70 90  1  0  0  0  0
 71118  1  0  0  0  0
 71119  1  0  0  0  0
 71120  1  0  0  0  0
 72 73  1  0  0  0  0
 72 77  1  0  0  0  0
 72 81  1  0  0  0  0
 73 74  1  0  0  0  0
 73 75  1  0  0  0  0
 73 76  1  0  0  0  0
 77 78  1  0  0  0  0
 77 79  1  0  0  0  0
 77 80  1  0  0  0  0
 81 82  1  0  0  0  0
 81 83  1  0  0  0  0
 81 84  1  0  0  0  0
152153  2  0  0  0  0
152276  1  0  0  0  0
153154  1  0  0  0  0
154155  2  0  0  0  0
154158  1  0  0  0  0
155156  1  0  0  0  0
156157  2  0  0  0  0
156274  1  0  0  0  0
157152  1  0  0  0  0
157223  1  0  0  0  0
158159  1  0  0  0  0
158162  2  0  0  0  0
159160  1  0  0  0  0
160161  2  0  0  0  0
161155  1  0  0  0  0
162163  1  0  0  0  0
162169  1  0  0  0  0
163164  2  0  0  0  0
164165  1  0  0  0  0
165159  1  0  0  0  0
165166  2  0  0  0  0
166167  1  0  0  0  0
166273  1  0  0  0  0
167219  1  0  0  0  0
167168  2  0  0  0  0
168160  1  0  0  0  0
168272  1  0  0  0  0
169197  1  0  0  0  0
169170  2  0  0  0  0
170171  1  0  0  0  0
170277  1  0  0  0  0
171215  1  0  0  0  0
171172  2  0  0  0  0
172163  1  0  0  0  0
172275  1  0  0  0  0
173153  1  0  0  0  0
174175  2  0  0  0  0
174278  1  0  0  0  0
175176  1  0  0  0  0
175195  1  0  0  0  0
176177  2  0  0  0  0
176180  1  0  0  0  0
177178  1  0  0  0  0
178179  2  0  0  0  0
178280  1  0  0  0  0
179211  1  0  0  0  0
179174  1  0  0  0  0
180184  2  0  0  0  0
181180  1  0  0  0  0
181182  1  0  0  0  0
182183  2  0  0  0  0
183177  1  0  0  0  0
184185  1  0  0  0  0
184191  1  0  0  0  0
185186  2  0  0  0  0
186187  1  0  0  0  0
187181  1  0  0  0  0
187188  2  0  0  0  0
188189  1  0  0  0  0
188283  1  0  0  0  0
189203  1  0  0  0  0
189190  2  0  0  0  0
190182  1  0  0  0  0
190282  1  0  0  0  0
191200  1  0  0  0  0
191192  2  0  0  0  0
192193  1  0  0  0  0
192279  1  0  0  0  0
193207  1  0  0  0  0
193194  2  0  0  0  0
194185  1  0  0  0  0
194281  1  0  0  0  0
196197  1  0  0  0  0
196200  1  0  0  0  0
196173  1  0  0  0  0
196195  1  0  0  0  0
197199  1  0  0  0  0
198199  1  0  0  0  0
198300  1  0  0  0  0
198301  1  0  0  0  0
198302  1  0  0  0  0
199298  1  0  0  0  0
199299  1  0  0  0  0
200202  1  0  0  0  0
201202  1  0  0  0  0
201295  1  0  0  0  0
201296  1  0  0  0  0
201297  1  0  0  0  0
202293  1  0  0  0  0
202294  1  0  0  0  0
203204  1  0  0  0  0
203205  1  0  0  0  0
203206  1  0  0  0  0
204257  1  0  0  0  0
204258  1  0  0  0  0
204259  1  0  0  0  0
205254  1  0  0  0  0
205255  1  0  0  0  0
205256  1  0  0  0  0
206251  1  0  0  0  0
206252  1  0  0  0  0
206253  1  0  0  0  0
207208  1  0  0  0  0
207209  1  0  0  0  0
207210  1  0  0  0  0
208248  1  0  0  0  0
208249  1  0  0  0  0
208250  1  0  0  0  0
209245  1  0  0  0  0
209246  1  0  0  0  0
209247  1  0  0  0  0
210242  1  0  0  0  0
210243  1  0  0  0  0
210244  1  0  0  0  0
211212  1  0  0  0  0
211213  1  0  0  0  0
211214  1  0  0  0  0
212266  1  0  0  0  0
212267  1  0  0  0  0
212268  1  0  0  0  0
213260  1  0  0  0  0
213261  1  0  0  0  0
213262  1  0  0  0  0
214263  1  0  0  0  0
214264  1  0  0  0  0
214265  1  0  0  0  0
215216  1  0  0  0  0
215217  1  0  0  0  0
215218  1  0  0  0  0
216290  1  0  0  0  0
216291  1  0  0  0  0
216292  1  0  0  0  0
217284  1  0  0  0  0
217285  1  0  0  0  0
217286  1  0  0  0  0
218287  1  0  0  0  0
218288  1  0  0  0  0
218289  1  0  0  0  0
219220  1  0  0  0  0
219221  1  0  0  0  0
219222  1  0  0  0  0
220236  1  0  0  0  0
220237  1  0  0  0  0
220238  1  0  0  0  0
221239  1  0  0  0  0
221240  1  0  0  0  0
221241  1  0  0  0  0
222269  1  0  0  0  0
222270  1  0  0  0  0
222271  1  0  0  0  0
223224  1  0  0  0  0
223228  1  0  0  0  0
223232  1  0  0  0  0
224225  1  0  0  0  0
224226  1  0  0  0  0
224227  1  0  0  0  0
228229  1  0  0  0  0
228230  1  0  0  0  0
228231  1  0  0  0  0
232233  1  0  0  0  0
232234  1  0  0  0  0
232235  1  0  0  0  0
M  CHG  1   8   1
M  CHG  1  45  -1
M  CHG  1 159   1
M  CHG  1 196  -1
M  END
