energy: -207.215854621715 gnorm: 0.000599143519 xtb: 6.7.1 (edcfbbe)_energy: -207.215854621715 gnorm: 0.000599143519 xtb: 6.7.1 (edcfbbe)
 OpenBabel03062511103D

302324  0  0  0  0  0  0  0  0999 V2000
    1.0530    1.6607    1.0502 C   0  0  0  0  0  0  0  0  0  0  0  0
    1.2122    0.3612    0.5482 C   0  0  0  0  0  0  0  0  0  0  0  0
    2.4892   -0.2759    0.7082 C   0  0  0  0  0  0  0  0  0  0  0  0
    3.5723    0.6196    1.0495 C   0  0  0  0  0  0  0  0  0  0  0  0
    3.3596    1.9793    1.3504 C   0  0  0  0  0  0  0  0  0  0  0  0
    2.0892    2.4783    1.4964 C   0  0  0  0  0  0  0  0  0  0  0  0
    2.8247   -1.6798    0.7370 C   0  0  0  0  0  0  0  0  0  0  0  0
    4.1115   -2.0234    1.2058 C   0  3  0  0  0  0  0  0  0  0  0  0
    5.1278   -1.0422    1.3238 C   0  0  0  0  0  0  0  0  0  0  0  0
    4.8454    0.2489    1.2017 N   0  0  0  0  0  0  0  0  0  0  0  0
    1.9968   -2.8134    0.4451 C   0  0  0  0  0  0  0  0  0  0  0  0
    2.3238   -4.0544    1.0893 C   0  0  0  0  0  0  0  0  0  0  0  0
    3.5077   -4.3100    1.6393 N   0  0  0  0  0  0  0  0  0  0  0  0
    4.4393   -3.3581    1.5715 C   0  0  0  0  0  0  0  0  0  0  0  0
    5.7624   -3.6794    1.9265 C   0  0  0  0  0  0  0  0  0  0  0  0
    6.7838   -2.7359    1.9138 C   0  0  0  0  0  0  0  0  0  0  0  0
    6.4535   -1.4227    1.6216 C   0  0  0  0  0  0  0  0  0  0  0  0
    0.9206   -2.8523   -0.4639 C   0  0  0  0  0  0  0  0  0  0  0  0
    0.0232   -3.9160   -0.4286 C   0  0  0  0  0  0  0  0  0  0  0  0
    0.1969   -5.0229    0.4087 C   0  0  0  0  0  0  0  0  0  0  0  0
    1.3804   -5.1062    1.1049 C   0  0  0  0  0  0  0  0  0  0  0  0
    0.0736   -0.1595    0.0943 O   0  0  0  0  0  0  0  0  0  0  0  0
   -3.6410   -2.2598   -1.3270 C   0  0  0  0  0  0  0  0  0  0  0  0
   -2.7888   -1.2132   -0.9449 C   0  0  0  0  0  0  0  0  0  0  0  0
   -3.3154    0.0919   -0.7359 C   0  0  0  0  0  0  0  0  0  0  0  0
   -4.7588    0.0995   -0.5981 C   0  0  0  0  0  0  0  0  0  0  0  0
   -5.5686   -0.9628   -1.0586 C   0  0  0  0  0  0  0  0  0  0  0  0
   -5.0212   -2.1521   -1.4686 C   0  0  0  0  0  0  0  0  0  0  0  0
   -2.6778    1.3839   -0.5433 C   0  0  0  0  0  0  0  0  0  0  0  0
   -3.4382    2.3123    0.2121 C   0  0  2  0  0  0  0  0  0  0  0  0
   -4.7869    2.0598    0.5779 C   0  0  0  0  0  0  0  0  0  0  0  0
   -5.4473    1.0368    0.0450 N   0  0  0  0  0  0  0  0  0  0  0  0
   -1.4869    1.9395   -1.1311 C   0  0  0  0  0  0  0  0  0  0  0  0
   -1.1663    3.3102   -0.8482 C   0  0  0  0  0  0  0  0  0  0  0  0
   -1.8015    4.0607    0.0517 N   0  0  0  0  0  0  0  0  0  0  0  0
   -2.9233    3.5855    0.5792 C   0  0  0  0  0  0  0  0  0  0  0  0
   -3.6364    4.4174    1.4668 C   0  0  0  0  0  0  0  0  0  0  0  0
   -4.9120    4.1037    1.9097 C   0  0  0  0  0  0  0  0  0  0  0  0
   -5.4914    2.9428    1.4187 C   0  0  0  0  0  0  0  0  0  0  0  0
   -0.6513    1.3276   -2.1047 C   0  0  0  0  0  0  0  0  0  0  0  0
    0.2874    2.0699   -2.8093 C   0  0  0  0  0  0  0  0  0  0  0  0
    0.5734    3.4131   -2.5448 C   0  0  0  0  0  0  0  0  0  0  0  0
   -0.1413    4.0019   -1.5375 C   0  0  0  0  0  0  0  0  0  0  0  0
   -1.5476   -1.6341   -0.7240 O   0  0  0  0  0  0  0  0  0  0  0  0
   -0.3567   -0.9093   -1.1091 B   0  5  2  0  0  0  0  0  0  0  0  0
    0.7607   -1.9084   -1.4665 N   0  0  0  0  0  0  0  0  0  0  0  0
    2.8242   -2.5780   -2.6316 C   0  0  0  0  0  0  0  0  0  0  0  0
    1.9590   -1.4270   -2.1238 C   0  0  0  0  0  0  0  0  0  0  0  0
   -0.7285   -0.0274   -2.3170 N   0  0  0  0  0  0  0  0  0  0  0  0
   -1.3344   -1.8901   -3.8436 C   0  0  0  0  0  0  0  0  0  0  0  0
   -0.7983   -0.4731   -3.6970 C   0  0  0  0  0  0  0  0  0  0  0  0
   -5.6339    5.0549    2.8500 C   0  0  0  0  0  0  0  0  0  0  0  0
   -7.0142    4.5361    3.2596 C   0  0  0  0  0  0  0  0  0  0  0  0
   -4.7886    5.2346    4.1183 C   0  0  0  0  0  0  0  0  0  0  0  0
   -5.8123    6.4072    2.1460 C   0  0  0  0  0  0  0  0  0  0  0  0
    1.6834    4.1078   -3.3129 C   0  0  0  0  0  0  0  0  0  0  0  0
    1.4373    3.9690   -4.8212 C   0  0  0  0  0  0  0  0  0  0  0  0
    1.7721    5.6000   -2.9833 C   0  0  0  0  0  0  0  0  0  0  0  0
    3.0126    3.4391   -2.9321 C   0  0  0  0  0  0  0  0  0  0  0  0
   -5.8987   -3.2850   -1.9705 C   0  0  0  0  0  0  0  0  0  0  0  0
   -6.7861   -2.7604   -3.1074 C   0  0  0  0  0  0  0  0  0  0  0  0
   -5.0842   -4.4662   -2.5040 C   0  0  0  0  0  0  0  0  0  0  0  0
   -6.7764   -3.7760   -0.8116 C   0  0  0  0  0  0  0  0  0  0  0  0
   -0.8118   -6.1576    0.4875 C   0  0  0  0  0  0  0  0  0  0  0  0
   -0.1980   -7.4162   -0.1408 C   0  0  0  0  0  0  0  0  0  0  0  0
   -1.1458   -6.4227    1.9619 C   0  0  0  0  0  0  0  0  0  0  0  0
   -2.1161   -5.8270   -0.2416 C   0  0  0  0  0  0  0  0  0  0  0  0
    8.2028   -3.1722    2.2441 C   0  0  0  0  0  0  0  0  0  0  0  0
    9.2040   -2.0170    2.1660 C   0  0  0  0  0  0  0  0  0  0  0  0
    8.2310   -3.7421    3.6687 C   0  0  0  0  0  0  0  0  0  0  0  0
    8.6337   -4.2514    1.2411 C   0  0  0  0  0  0  0  0  0  0  0  0
    1.8749    3.8508    2.1118 C   0  0  0  0  0  0  0  0  0  0  0  0
    2.6667    3.9368    3.4258 C   0  0  0  0  0  0  0  0  0  0  0  0
    2.4906    4.8991    3.9022 H   0  0  0  0  0  0  0  0  0  0  0  0
    3.7348    3.8328    3.2604 H   0  0  0  0  0  0  0  0  0  0  0  0
    2.3484    3.1513    4.1079 H   0  0  0  0  0  0  0  0  0  0  0  0
    2.3863    4.9114    1.1303 C   0  0  0  0  0  0  0  0  0  0  0  0
    3.4473    4.7786    0.9326 H   0  0  0  0  0  0  0  0  0  0  0  0
    2.2317    5.9083    1.5378 H   0  0  0  0  0  0  0  0  0  0  0  0
    1.8450    4.8292    0.1916 H   0  0  0  0  0  0  0  0  0  0  0  0
    0.4063    4.1312    2.4354 C   0  0  0  0  0  0  0  0  0  0  0  0
   -0.0064    3.3454    3.0647 H   0  0  0  0  0  0  0  0  0  0  0  0
   -0.1961    4.2183    1.5353 H   0  0  0  0  0  0  0  0  0  0  0  0
    0.3296    5.0725    2.9768 H   0  0  0  0  0  0  0  0  0  0  0  0
    8.9645   -1.2414    2.8895 H   0  0  0  0  0  0  0  0  0  0  0  0
    9.2219   -1.5819    1.1696 H   0  0  0  0  0  0  0  0  0  0  0  0
   10.2021   -2.3879    2.3896 H   0  0  0  0  0  0  0  0  0  0  0  0
    7.9011   -2.9890    4.3813 H   0  0  0  0  0  0  0  0  0  0  0  0
    9.2428   -4.0445    3.9296 H   0  0  0  0  0  0  0  0  0  0  0  0
    7.5815   -4.6077    3.7623 H   0  0  0  0  0  0  0  0  0  0  0  0
    3.0259    2.3929   -3.2268 H   0  0  0  0  0  0  0  0  0  0  0  0
    3.1646    3.4875   -1.8557 H   0  0  0  0  0  0  0  0  0  0  0  0
    3.8412    3.9442   -3.4238 H   0  0  0  0  0  0  0  0  0  0  0  0
    0.8265    6.0981   -3.1841 H   0  0  0  0  0  0  0  0  0  0  0  0
    2.5380    6.0634   -3.6018 H   0  0  0  0  0  0  0  0  0  0  0  0
    2.0435    5.7588   -1.9431 H   0  0  0  0  0  0  0  0  0  0  0  0
    0.4841    4.4203   -5.0889 H   0  0  0  0  0  0  0  0  0  0  0  0
    1.4219    2.9287   -5.1332 H   0  0  0  0  0  0  0  0  0  0  0  0
    2.2257    4.4747   -5.3745 H   0  0  0  0  0  0  0  0  0  0  0  0
   -6.3902    6.2824    1.2326 H   0  0  0  0  0  0  0  0  0  0  0  0
   -4.8536    6.8465    1.8851 H   0  0  0  0  0  0  0  0  0  0  0  0
   -6.3408    7.1003    2.7968 H   0  0  0  0  0  0  0  0  0  0  0  0
   -4.6434    4.2763    4.6125 H   0  0  0  0  0  0  0  0  0  0  0  0
   -5.2919    5.9065    4.8102 H   0  0  0  0  0  0  0  0  0  0  0  0
   -3.8121    5.6511    3.8885 H   0  0  0  0  0  0  0  0  0  0  0  0
   -6.9375    3.5692    3.7511 H   0  0  0  0  0  0  0  0  0  0  0  0
   -7.6710    4.4466    2.3977 H   0  0  0  0  0  0  0  0  0  0  0  0
   -7.4711    5.2346    3.9576 H   0  0  0  0  0  0  0  0  0  0  0  0
   -4.4008   -4.1455   -3.2871 H   0  0  0  0  0  0  0  0  0  0  0  0
   -5.7576   -5.2095   -2.9260 H   0  0  0  0  0  0  0  0  0  0  0  0
   -4.5171   -4.9429   -1.7092 H   0  0  0  0  0  0  0  0  0  0  0  0
   -7.4130   -2.9778   -0.4404 H   0  0  0  0  0  0  0  0  0  0  0  0
   -6.1541   -4.1259    0.0093 H   0  0  0  0  0  0  0  0  0  0  0  0
   -7.4090   -4.5974   -1.1412 H   0  0  0  0  0  0  0  0  0  0  0  0
   -6.1708   -2.3953   -3.9271 H   0  0  0  0  0  0  0  0  0  0  0  0
   -7.4216   -1.9473   -2.7695 H   0  0  0  0  0  0  0  0  0  0  0  0
   -7.4234   -3.5580   -3.4831 H   0  0  0  0  0  0  0  0  0  0  0  0
    8.5992   -3.8579    0.2272 H   0  0  0  0  0  0  0  0  0  0  0  0
    7.9853   -5.1216    1.2913 H   0  0  0  0  0  0  0  0  0  0  0  0
    9.6516   -4.5719    1.4518 H   0  0  0  0  0  0  0  0  0  0  0  0
    7.1796   -0.6282    1.6384 H   0  0  0  0  0  0  0  0  0  0  0  0
    5.9464   -4.7074    2.1947 H   0  0  0  0  0  0  0  0  0  0  0  0
    4.2441    2.5489    1.5820 H   0  0  0  0  0  0  0  0  0  0  0  0
    1.6660   -5.9868    1.6568 H   0  0  0  0  0  0  0  0  0  0  0  0
    0.0383    2.0203    1.0583 H   0  0  0  0  0  0  0  0  0  0  0  0
   -0.7997   -3.8672   -1.1180 H   0  0  0  0  0  0  0  0  0  0  0  0
   -3.1470   -3.2007   -1.5010 H   0  0  0  0  0  0  0  0  0  0  0  0
    0.8767    1.5443   -3.5436 H   0  0  0  0  0  0  0  0  0  0  0  0
   -6.6314   -0.8000   -0.9902 H   0  0  0  0  0  0  0  0  0  0  0  0
   -0.0027    5.0277   -1.2413 H   0  0  0  0  0  0  0  0  0  0  0  0
   -6.5078    2.6677    1.6429 H   0  0  0  0  0  0  0  0  0  0  0  0
   -3.1447    5.3339    1.7509 H   0  0  0  0  0  0  0  0  0  0  0  0
   -0.2634   -6.7151    2.5233 H   0  0  0  0  0  0  0  0  0  0  0  0
   -1.8797   -7.2222    2.0415 H   0  0  0  0  0  0  0  0  0  0  0  0
   -1.5601   -5.5265    2.4186 H   0  0  0  0  0  0  0  0  0  0  0  0
   -1.9549   -5.7398   -1.3140 H   0  0  0  0  0  0  0  0  0  0  0  0
   -2.5382   -4.8992    0.1379 H   0  0  0  0  0  0  0  0  0  0  0  0
   -2.8371   -6.6260   -0.0764 H   0  0  0  0  0  0  0  0  0  0  0  0
    0.7050   -7.7145    0.3845 H   0  0  0  0  0  0  0  0  0  0  0  0
    0.0584   -7.2318   -1.1821 H   0  0  0  0  0  0  0  0  0  0  0  0
   -0.9076   -8.2399   -0.1000 H   0  0  0  0  0  0  0  0  0  0  0  0
    0.1775   -0.4267   -4.2055 H   0  0  0  0  0  0  0  0  0  0  0  0
   -1.4643    0.2221   -4.2245 H   0  0  0  0  0  0  0  0  0  0  0  0
   -0.7291   -2.5731   -3.2562 H   0  0  0  0  0  0  0  0  0  0  0  0
   -1.2947   -2.1820   -4.8912 H   0  0  0  0  0  0  0  0  0  0  0  0
   -2.3639   -1.9441   -3.5027 H   0  0  0  0  0  0  0  0  0  0  0  0
    2.5699   -0.7598   -1.4980 H   0  0  0  0  0  0  0  0  0  0  0  0
    1.6323   -0.8322   -2.9748 H   0  0  0  0  0  0  0  0  0  0  0  0
    3.2467   -3.1495   -1.8083 H   0  0  0  0  0  0  0  0  0  0  0  0
    3.6416   -2.1837   -3.2308 H   0  0  0  0  0  0  0  0  0  0  0  0
    2.2279   -3.2500   -3.2446 H   0  0  0  0  0  0  0  0  0  0  0  0
    1.0530    1.6607   10.0502 C   0  0  0  0  0  0  0  0  0  0  0  0
    1.2122    0.3612    9.5482 C   0  0  0  0  0  0  0  0  0  0  0  0
    2.4892   -0.2759    9.7082 C   0  0  0  0  0  0  0  0  0  0  0  0
    3.5723    0.6196   10.0495 C   0  0  0  0  0  0  0  0  0  0  0  0
    3.3596    1.9793   10.3504 C   0  0  0  0  0  0  0  0  0  0  0  0
    2.0892    2.4783   10.4964 C   0  0  0  0  0  0  0  0  0  0  0  0
    2.8247   -1.6798    9.7370 C   0  0  0  0  0  0  0  0  0  0  0  0
    4.1115   -2.0234   10.2058 C   0  3  0  0  0  0  0  0  0  0  0  0
    5.1278   -1.0422   10.3238 C   0  0  0  0  0  0  0  0  0  0  0  0
    4.8454    0.2489   10.2017 N   0  0  0  0  0  0  0  0  0  0  0  0
    1.9968   -2.8134    9.4451 C   0  0  0  0  0  0  0  0  0  0  0  0
    2.3238   -4.0544   10.0893 C   0  0  0  0  0  0  0  0  0  0  0  0
    3.5077   -4.3100   10.6393 N   0  0  0  0  0  0  0  0  0  0  0  0
    4.4393   -3.3581   10.5715 C   0  0  0  0  0  0  0  0  0  0  0  0
    5.7624   -3.6794   10.9265 C   0  0  0  0  0  0  0  0  0  0  0  0
    6.7838   -2.7359   10.9138 C   0  0  0  0  0  0  0  0  0  0  0  0
    6.4535   -1.4227   10.6216 C   0  0  0  0  0  0  0  0  0  0  0  0
    0.9206   -2.8523    8.5361 C   0  0  0  0  0  0  0  0  0  0  0  0
    0.0232   -3.9160    8.5714 C   0  0  0  0  0  0  0  0  0  0  0  0
    0.1969   -5.0229    9.4087 C   0  0  0  0  0  0  0  0  0  0  0  0
    1.3804   -5.1062   10.1049 C   0  0  0  0  0  0  0  0  0  0  0  0
    0.0736   -0.1595    9.0943 O   0  0  0  0  0  0  0  0  0  0  0  0
   -3.6410   -2.2598    7.6730 C   0  0  0  0  0  0  0  0  0  0  0  0
   -2.7888   -1.2132    8.0551 C   0  0  0  0  0  0  0  0  0  0  0  0
   -3.3154    0.0919    8.2641 C   0  0  0  0  0  0  0  0  0  0  0  0
   -4.7588    0.0995    8.4019 C   0  0  0  0  0  0  0  0  0  0  0  0
   -5.5686   -0.9628    7.9414 C   0  0  0  0  0  0  0  0  0  0  0  0
   -5.0212   -2.1521    7.5314 C   0  0  0  0  0  0  0  0  0  0  0  0
   -2.6778    1.3839    8.4567 C   0  0  0  0  0  0  0  0  0  0  0  0
   -3.4382    2.3123    9.2121 C   0  0  2  0  0  0  0  0  0  0  0  0
   -4.7869    2.0598    9.5779 C   0  0  0  0  0  0  0  0  0  0  0  0
   -5.4473    1.0368    9.0450 N   0  0  0  0  0  0  0  0  0  0  0  0
   -1.4869    1.9395    7.8689 C   0  0  0  0  0  0  0  0  0  0  0  0
   -1.1663    3.3102    8.1518 C   0  0  0  0  0  0  0  0  0  0  0  0
   -1.8015    4.0607    9.0517 N   0  0  0  0  0  0  0  0  0  0  0  0
   -2.9233    3.5855    9.5792 C   0  0  0  0  0  0  0  0  0  0  0  0
   -3.6364    4.4174   10.4668 C   0  0  0  0  0  0  0  0  0  0  0  0
   -4.9120    4.1037   10.9097 C   0  0  0  0  0  0  0  0  0  0  0  0
   -5.4914    2.9428   10.4187 C   0  0  0  0  0  0  0  0  0  0  0  0
   -0.6513    1.3276    6.8953 C   0  0  0  0  0  0  0  0  0  0  0  0
    0.2874    2.0699    6.1907 C   0  0  0  0  0  0  0  0  0  0  0  0
    0.5734    3.4131    6.4552 C   0  0  0  0  0  0  0  0  0  0  0  0
   -0.1413    4.0019    7.4625 C   0  0  0  0  0  0  0  0  0  0  0  0
   -1.5476   -1.6341    8.2760 O   0  0  0  0  0  0  0  0  0  0  0  0
   -0.3567   -0.9093    7.8909 B   0  5  2  0  0  0  0  0  0  0  0  0
    0.7607   -1.9084    7.5335 N   0  0  0  0  0  0  0  0  0  0  0  0
    2.8242   -2.5780    6.3684 C   0  0  0  0  0  0  0  0  0  0  0  0
    1.9590   -1.4270    6.8762 C   0  0  0  0  0  0  0  0  0  0  0  0
   -0.7285   -0.0274    6.6830 N   0  0  0  0  0  0  0  0  0  0  0  0
   -1.3344   -1.8901    5.1564 C   0  0  0  0  0  0  0  0  0  0  0  0
   -0.7983   -0.4731    5.3030 C   0  0  0  0  0  0  0  0  0  0  0  0
   -5.6339    5.0549   11.8500 C   0  0  0  0  0  0  0  0  0  0  0  0
   -7.0142    4.5361   12.2596 C   0  0  0  0  0  0  0  0  0  0  0  0
   -4.7886    5.2346   13.1183 C   0  0  0  0  0  0  0  0  0  0  0  0
   -5.8123    6.4072   11.1460 C   0  0  0  0  0  0  0  0  0  0  0  0
    1.6834    4.1078    5.6871 C   0  0  0  0  0  0  0  0  0  0  0  0
    1.4373    3.9690    4.1788 C   0  0  0  0  0  0  0  0  0  0  0  0
    1.7721    5.6000    6.0167 C   0  0  0  0  0  0  0  0  0  0  0  0
    3.0126    3.4391    6.0679 C   0  0  0  0  0  0  0  0  0  0  0  0
   -5.8987   -3.2850    7.0295 C   0  0  0  0  0  0  0  0  0  0  0  0
   -6.7861   -2.7604    5.8926 C   0  0  0  0  0  0  0  0  0  0  0  0
   -5.0842   -4.4662    6.4960 C   0  0  0  0  0  0  0  0  0  0  0  0
   -6.7764   -3.7760    8.1884 C   0  0  0  0  0  0  0  0  0  0  0  0
   -0.8118   -6.1576    9.4875 C   0  0  0  0  0  0  0  0  0  0  0  0
   -0.1980   -7.4162    8.8592 C   0  0  0  0  0  0  0  0  0  0  0  0
   -1.1458   -6.4227   10.9619 C   0  0  0  0  0  0  0  0  0  0  0  0
   -2.1161   -5.8270    8.7584 C   0  0  0  0  0  0  0  0  0  0  0  0
    8.2028   -3.1722   11.2441 C   0  0  0  0  0  0  0  0  0  0  0  0
    9.2040   -2.0170   11.1660 C   0  0  0  0  0  0  0  0  0  0  0  0
    8.2310   -3.7421   12.6687 C   0  0  0  0  0  0  0  0  0  0  0  0
    8.6337   -4.2514   10.2411 C   0  0  0  0  0  0  0  0  0  0  0  0
    1.8749    3.8508   11.1118 C   0  0  0  0  0  0  0  0  0  0  0  0
    2.6667    3.9368   12.4258 C   0  0  0  0  0  0  0  0  0  0  0  0
    2.4906    4.8991   12.9022 H   0  0  0  0  0  0  0  0  0  0  0  0
    3.7348    3.8328   12.2604 H   0  0  0  0  0  0  0  0  0  0  0  0
    2.3484    3.1513   13.1079 H   0  0  0  0  0  0  0  0  0  0  0  0
    2.3863    4.9114   10.1303 C   0  0  0  0  0  0  0  0  0  0  0  0
    3.4473    4.7786    9.9326 H   0  0  0  0  0  0  0  0  0  0  0  0
    2.2317    5.9083   10.5378 H   0  0  0  0  0  0  0  0  0  0  0  0
    1.8450    4.8292    9.1916 H   0  0  0  0  0  0  0  0  0  0  0  0
    0.4063    4.1312   11.4354 C   0  0  0  0  0  0  0  0  0  0  0  0
   -0.0064    3.3454   12.0647 H   0  0  0  0  0  0  0  0  0  0  0  0
   -0.1961    4.2183   10.5353 H   0  0  0  0  0  0  0  0  0  0  0  0
    0.3296    5.0725   11.9768 H   0  0  0  0  0  0  0  0  0  0  0  0
    8.9645   -1.2414   11.8895 H   0  0  0  0  0  0  0  0  0  0  0  0
    9.2219   -1.5819   10.1696 H   0  0  0  0  0  0  0  0  0  0  0  0
   10.2021   -2.3879   11.3896 H   0  0  0  0  0  0  0  0  0  0  0  0
    7.9011   -2.9890   13.3813 H   0  0  0  0  0  0  0  0  0  0  0  0
    9.2428   -4.0445   12.9296 H   0  0  0  0  0  0  0  0  0  0  0  0
    7.5815   -4.6077   12.7623 H   0  0  0  0  0  0  0  0  0  0  0  0
    3.0259    2.3929    5.7732 H   0  0  0  0  0  0  0  0  0  0  0  0
    3.1646    3.4875    7.1443 H   0  0  0  0  0  0  0  0  0  0  0  0
    3.8412    3.9442    5.5762 H   0  0  0  0  0  0  0  0  0  0  0  0
    0.8265    6.0981    5.8159 H   0  0  0  0  0  0  0  0  0  0  0  0
    2.5380    6.0634    5.3982 H   0  0  0  0  0  0  0  0  0  0  0  0
    2.0435    5.7588    7.0569 H   0  0  0  0  0  0  0  0  0  0  0  0
    0.4841    4.4203    3.9111 H   0  0  0  0  0  0  0  0  0  0  0  0
    1.4219    2.9287    3.8668 H   0  0  0  0  0  0  0  0  0  0  0  0
    2.2257    4.4747    3.6255 H   0  0  0  0  0  0  0  0  0  0  0  0
   -6.3902    6.2824   10.2326 H   0  0  0  0  0  0  0  0  0  0  0  0
   -4.8536    6.8465   10.8851 H   0  0  0  0  0  0  0  0  0  0  0  0
   -6.3408    7.1003   11.7968 H   0  0  0  0  0  0  0  0  0  0  0  0
   -4.6434    4.2763   13.6125 H   0  0  0  0  0  0  0  0  0  0  0  0
   -5.2919    5.9065   13.8102 H   0  0  0  0  0  0  0  0  0  0  0  0
   -3.8121    5.6511   12.8885 H   0  0  0  0  0  0  0  0  0  0  0  0
   -6.9375    3.5692   12.7511 H   0  0  0  0  0  0  0  0  0  0  0  0
   -7.6710    4.4466   11.3977 H   0  0  0  0  0  0  0  0  0  0  0  0
   -7.4711    5.2346   12.9576 H   0  0  0  0  0  0  0  0  0  0  0  0
   -4.4008   -4.1455    5.7129 H   0  0  0  0  0  0  0  0  0  0  0  0
   -5.7576   -5.2095    6.0740 H   0  0  0  0  0  0  0  0  0  0  0  0
   -4.5171   -4.9429    7.2908 H   0  0  0  0  0  0  0  0  0  0  0  0
   -7.4130   -2.9778    8.5596 H   0  0  0  0  0  0  0  0  0  0  0  0
   -6.1541   -4.1259    9.0093 H   0  0  0  0  0  0  0  0  0  0  0  0
   -7.4090   -4.5974    7.8588 H   0  0  0  0  0  0  0  0  0  0  0  0
   -6.1708   -2.3953    5.0729 H   0  0  0  0  0  0  0  0  0  0  0  0
   -7.4216   -1.9473    6.2305 H   0  0  0  0  0  0  0  0  0  0  0  0
   -7.4234   -3.5580    5.5169 H   0  0  0  0  0  0  0  0  0  0  0  0
    8.5992   -3.8579    9.2272 H   0  0  0  0  0  0  0  0  0  0  0  0
    7.9853   -5.1216   10.2913 H   0  0  0  0  0  0  0  0  0  0  0  0
    9.6516   -4.5719   10.4518 H   0  0  0  0  0  0  0  0  0  0  0  0
    7.1796   -0.6282   10.6384 H   0  0  0  0  0  0  0  0  0  0  0  0
    5.9464   -4.7074   11.1947 H   0  0  0  0  0  0  0  0  0  0  0  0
    4.2441    2.5489   10.5820 H   0  0  0  0  0  0  0  0  0  0  0  0
    1.6660   -5.9868   10.6568 H   0  0  0  0  0  0  0  0  0  0  0  0
    0.0383    2.0203   10.0583 H   0  0  0  0  0  0  0  0  0  0  0  0
   -0.7997   -3.8672    7.8820 H   0  0  0  0  0  0  0  0  0  0  0  0
   -3.1470   -3.2007    7.4990 H   0  0  0  0  0  0  0  0  0  0  0  0
    0.8767    1.5443    5.4564 H   0  0  0  0  0  0  0  0  0  0  0  0
   -6.6314   -0.8000    8.0098 H   0  0  0  0  0  0  0  0  0  0  0  0
   -0.0027    5.0277    7.7587 H   0  0  0  0  0  0  0  0  0  0  0  0
   -6.5078    2.6677   10.6429 H   0  0  0  0  0  0  0  0  0  0  0  0
   -3.1447    5.3339   10.7509 H   0  0  0  0  0  0  0  0  0  0  0  0
   -0.2634   -6.7151   11.5233 H   0  0  0  0  0  0  0  0  0  0  0  0
   -1.8797   -7.2222   11.0415 H   0  0  0  0  0  0  0  0  0  0  0  0
   -1.5601   -5.5265   11.4186 H   0  0  0  0  0  0  0  0  0  0  0  0
   -1.9549   -5.7398    7.6860 H   0  0  0  0  0  0  0  0  0  0  0  0
   -2.5382   -4.8992    9.1379 H   0  0  0  0  0  0  0  0  0  0  0  0
   -2.8371   -6.6260    8.9236 H   0  0  0  0  0  0  0  0  0  0  0  0
    0.7050   -7.7145    9.3845 H   0  0  0  0  0  0  0  0  0  0  0  0
    0.0584   -7.2318    7.8179 H   0  0  0  0  0  0  0  0  0  0  0  0
   -0.9076   -8.2399    8.9000 H   0  0  0  0  0  0  0  0  0  0  0  0
    0.1775   -0.4267    4.7945 H   0  0  0  0  0  0  0  0  0  0  0  0
   -1.4643    0.2221    4.7755 H   0  0  0  0  0  0  0  0  0  0  0  0
   -0.7291   -2.5731    5.7438 H   0  0  0  0  0  0  0  0  0  0  0  0
   -1.2947   -2.1820    4.1088 H   0  0  0  0  0  0  0  0  0  0  0  0
   -2.3639   -1.9441    5.4973 H   0  0  0  0  0  0  0  0  0  0  0  0
    2.5699   -0.7598    7.5020 H   0  0  0  0  0  0  0  0  0  0  0  0
    1.6323   -0.8322    6.0252 H   0  0  0  0  0  0  0  0  0  0  0  0
    3.2467   -3.1495    7.1917 H   0  0  0  0  0  0  0  0  0  0  0  0
    3.6416   -2.1837    5.7692 H   0  0  0  0  0  0  0  0  0  0  0  0
    2.2279   -3.2500    5.7554 H   0  0  0  0  0  0  0  0  0  0  0  0
  1  2  2  0  0  0  0
  1125  1  0  0  0  0
  2  3  1  0  0  0  0
  3  4  2  0  0  0  0
  3  7  1  0  0  0  0
  4  5  1  0  0  0  0
  5  6  2  0  0  0  0
  5123  1  0  0  0  0
  6  1  1  0  0  0  0
  6 72  1  0  0  0  0
  7  8  1  0  0  0  0
  7 11  2  0  0  0  0
  8  9  1  0  0  0  0
  9 10  2  0  0  0  0
 10  4  1  0  0  0  0
 11 12  1  0  0  0  0
 11 18  1  0  0  0  0
 12 13  2  0  0  0  0
 13 14  1  0  0  0  0
 14  8  1  0  0  0  0
 14 15  2  0  0  0  0
 15 16  1  0  0  0  0
 15122  1  0  0  0  0
 16 68  1  0  0  0  0
 16 17  2  0  0  0  0
 17  9  1  0  0  0  0
 17121  1  0  0  0  0
 18 46  1  0  0  0  0
 18 19  2  0  0  0  0
 19 20  1  0  0  0  0
 19126  1  0  0  0  0
 20 64  1  0  0  0  0
 20 21  2  0  0  0  0
 21 12  1  0  0  0  0
 21124  1  0  0  0  0
 22  2  1  0  0  0  0
 23 24  2  0  0  0  0
 23127  1  0  0  0  0
 24 25  1  0  0  0  0
 24 44  1  0  0  0  0
 25 26  2  0  0  0  0
 25 29  1  0  0  0  0
 26 27  1  0  0  0  0
 27 28  2  0  0  0  0
 27129  1  0  0  0  0
 28 60  1  0  0  0  0
 28 23  1  0  0  0  0
 29 33  2  0  0  0  0
 30 29  1  6  0  0  0
 30 31  1  0  0  0  0
 31 32  2  0  0  0  0
 32 26  1  0  0  0  0
 33 34  1  0  0  0  0
 33 40  1  0  0  0  0
 34 35  2  0  0  0  0
 35 36  1  0  0  0  0
 36 30  1  0  0  0  0
 36 37  2  0  0  0  0
 37 38  1  0  0  0  0
 37132  1  0  0  0  0
 38 52  1  0  0  0  0
 38 39  2  0  0  0  0
 39 31  1  0  0  0  0
 39131  1  0  0  0  0
 40 49  1  0  0  0  0
 40 41  2  0  0  0  0
 41 42  1  0  0  0  0
 41128  1  0  0  0  0
 42 56  1  0  0  0  0
 42 43  2  0  0  0  0
 43 34  1  0  0  0  0
 43130  1  0  0  0  0
 45 46  1  0  0  0  0
 45 49  1  0  0  0  0
 45 22  1  1  0  0  0
 45 44  1  0  0  0  0
 46 48  1  0  0  0  0
 47 48  1  0  0  0  0
 47149  1  0  0  0  0
 47150  1  0  0  0  0
 47151  1  0  0  0  0
 48147  1  0  0  0  0
 48148  1  0  0  0  0
 49 51  1  0  0  0  0
 50 51  1  0  0  0  0
 50144  1  0  0  0  0
 50145  1  0  0  0  0
 50146  1  0  0  0  0
 51142  1  0  0  0  0
 51143  1  0  0  0  0
 52 53  1  0  0  0  0
 52 54  1  0  0  0  0
 52 55  1  0  0  0  0
 53106  1  0  0  0  0
 53107  1  0  0  0  0
 53108  1  0  0  0  0
 54103  1  0  0  0  0
 54104  1  0  0  0  0
 54105  1  0  0  0  0
 55100  1  0  0  0  0
 55101  1  0  0  0  0
 55102  1  0  0  0  0
 56 57  1  0  0  0  0
 56 58  1  0  0  0  0
 56 59  1  0  0  0  0
 57 97  1  0  0  0  0
 57 98  1  0  0  0  0
 57 99  1  0  0  0  0
 58 94  1  0  0  0  0
 58 95  1  0  0  0  0
 58 96  1  0  0  0  0
 59 91  1  0  0  0  0
 59 92  1  0  0  0  0
 59 93  1  0  0  0  0
 60 61  1  0  0  0  0
 60 62  1  0  0  0  0
 60 63  1  0  0  0  0
 61115  1  0  0  0  0
 61116  1  0  0  0  0
 61117  1  0  0  0  0
 62109  1  0  0  0  0
 62110  1  0  0  0  0
 62111  1  0  0  0  0
 63112  1  0  0  0  0
 63113  1  0  0  0  0
 63114  1  0  0  0  0
 64 65  1  0  0  0  0
 64 66  1  0  0  0  0
 64 67  1  0  0  0  0
 65139  1  0  0  0  0
 65140  1  0  0  0  0
 65141  1  0  0  0  0
 66133  1  0  0  0  0
 66134  1  0  0  0  0
 66135  1  0  0  0  0
 67136  1  0  0  0  0
 67137  1  0  0  0  0
 67138  1  0  0  0  0
 68 69  1  0  0  0  0
 68 70  1  0  0  0  0
 68 71  1  0  0  0  0
 69 85  1  0  0  0  0
 69 86  1  0  0  0  0
 69 87  1  0  0  0  0
 70 88  1  0  0  0  0
 70 89  1  0  0  0  0
 70 90  1  0  0  0  0
 71118  1  0  0  0  0
 71119  1  0  0  0  0
 71120  1  0  0  0  0
 72 73  1  0  0  0  0
 72 77  1  0  0  0  0
 72 81  1  0  0  0  0
 73 74  1  0  0  0  0
 73 75  1  0  0  0  0
 73 76  1  0  0  0  0
 77 78  1  0  0  0  0
 77 79  1  0  0  0  0
 77 80  1  0  0  0  0
 81 82  1  0  0  0  0
 81 83  1  0  0  0  0
 81 84  1  0  0  0  0
152153  2  0  0  0  0
152276  1  0  0  0  0
153154  1  0  0  0  0
154155  2  0  0  0  0
154158  1  0  0  0  0
155156  1  0  0  0  0
156157  2  0  0  0  0
156274  1  0  0  0  0
157152  1  0  0  0  0
157223  1  0  0  0  0
158159  1  0  0  0  0
158162  2  0  0  0  0
159160  1  0  0  0  0
160161  2  0  0  0  0
161155  1  0  0  0  0
162163  1  0  0  0  0
162169  1  0  0  0  0
163164  2  0  0  0  0
164165  1  0  0  0  0
165159  1  0  0  0  0
165166  2  0  0  0  0
166167  1  0  0  0  0
166273  1  0  0  0  0
167219  1  0  0  0  0
167168  2  0  0  0  0
168160  1  0  0  0  0
168272  1  0  0  0  0
169197  1  0  0  0  0
169170  2  0  0  0  0
170171  1  0  0  0  0
170277  1  0  0  0  0
171215  1  0  0  0  0
171172  2  0  0  0  0
172163  1  0  0  0  0
172275  1  0  0  0  0
173153  1  0  0  0  0
174175  2  0  0  0  0
174278  1  0  0  0  0
175176  1  0  0  0  0
175195  1  0  0  0  0
176177  2  0  0  0  0
176180  1  0  0  0  0
177178  1  0  0  0  0
178179  2  0  0  0  0
178280  1  0  0  0  0
179211  1  0  0  0  0
179174  1  0  0  0  0
180184  2  0  0  0  0
181180  1  6  0  0  0
181182  1  0  0  0  0
182183  2  0  0  0  0
183177  1  0  0  0  0
184185  1  0  0  0  0
184191  1  0  0  0  0
185186  2  0  0  0  0
186187  1  0  0  0  0
187181  1  0  0  0  0
187188  2  0  0  0  0
188189  1  0  0  0  0
188283  1  0  0  0  0
189203  1  0  0  0  0
189190  2  0  0  0  0
190182  1  0  0  0  0
190282  1  0  0  0  0
191200  1  0  0  0  0
191192  2  0  0  0  0
192193  1  0  0  0  0
192279  1  0  0  0  0
193207  1  0  0  0  0
193194  2  0  0  0  0
194185  1  0  0  0  0
194281  1  0  0  0  0
196197  1  0  0  0  0
196200  1  0  0  0  0
196173  1  1  0  0  0
196195  1  0  0  0  0
197199  1  0  0  0  0
198199  1  0  0  0  0
198300  1  0  0  0  0
198301  1  0  0  0  0
198302  1  0  0  0  0
199298  1  0  0  0  0
199299  1  0  0  0  0
200202  1  0  0  0  0
201202  1  0  0  0  0
201295  1  0  0  0  0
201296  1  0  0  0  0
201297  1  0  0  0  0
202293  1  0  0  0  0
202294  1  0  0  0  0
203204  1  0  0  0  0
203205  1  0  0  0  0
203206  1  0  0  0  0
204257  1  0  0  0  0
204258  1  0  0  0  0
204259  1  0  0  0  0
205254  1  0  0  0  0
205255  1  0  0  0  0
205256  1  0  0  0  0
206251  1  0  0  0  0
206252  1  0  0  0  0
206253  1  0  0  0  0
207208  1  0  0  0  0
207209  1  0  0  0  0
207210  1  0  0  0  0
208248  1  0  0  0  0
208249  1  0  0  0  0
208250  1  0  0  0  0
209245  1  0  0  0  0
209246  1  0  0  0  0
209247  1  0  0  0  0
210242  1  0  0  0  0
210243  1  0  0  0  0
210244  1  0  0  0  0
211212  1  0  0  0  0
211213  1  0  0  0  0
211214  1  0  0  0  0
212266  1  0  0  0  0
212267  1  0  0  0  0
212268  1  0  0  0  0
213260  1  0  0  0  0
213261  1  0  0  0  0
213262  1  0  0  0  0
214263  1  0  0  0  0
214264  1  0  0  0  0
214265  1  0  0  0  0
215216  1  0  0  0  0
215217  1  0  0  0  0
215218  1  0  0  0  0
216290  1  0  0  0  0
216291  1  0  0  0  0
216292  1  0  0  0  0
217284  1  0  0  0  0
217285  1  0  0  0  0
217286  1  0  0  0  0
218287  1  0  0  0  0
218288  1  0  0  0  0
218289  1  0  0  0  0
219220  1  0  0  0  0
219221  1  0  0  0  0
219222  1  0  0  0  0
220236  1  0  0  0  0
220237  1  0  0  0  0
220238  1  0  0  0  0
221239  1  0  0  0  0
221240  1  0  0  0  0
221241  1  0  0  0  0
222269  1  0  0  0  0
222270  1  0  0  0  0
222271  1  0  0  0  0
223224  1  0  0  0  0
223228  1  0  0  0  0
223232  1  0  0  0  0
224225  1  0  0  0  0
224226  1  0  0  0  0
224227  1  0  0  0  0
228229  1  0  0  0  0
228230  1  0  0  0  0
228231  1  0  0  0  0
232233  1  0  0  0  0
232234  1  0  0  0  0
232235  1  0  0  0  0
M  CHG  4   8   1  45  -1 159   1 196  -1
M  END
