 energy: -23.095068422112 gnorm: 0.000697304708 xtb: 6.7.1 (edcfbbe)
          03042512033D

116124  0     0  0            999 V2000
   -2.1147    2.4769   -0.5680 C   0  0  0  0  0  0  0  0  0  0  0  0
   -1.8979    1.2624    0.0714 C   0  0  0  0  0  0  0  0  0  0  0  0
   -1.0450    1.2403    1.2287 C   0  0  0  0  0  0  0  0  0  0  0  0
   -0.1999    2.3615    1.4686 C   0  0  0  0  0  0  0  0  0  0  0  0
   -0.4340    3.5444    0.7508 C   0  0  0  0  0  0  0  0  0  0  0  0
   -1.4044    3.6179   -0.2190 C   0  0  0  0  0  0  0  0  0  0  0  0
   -0.9338    0.1249    2.1168 C   0  0  0  0  0  0  0  0  0  0  0  0
    0.2273    0.0510    2.8903 C   0  0  0  0  0  0  0  0  0  0  0  0
    1.0949    1.1766    2.9610 C   0  0  0  0  0  0  0  0  0  0  0  0
    0.8424    2.3377    2.3278 N   0  0  0  0  0  0  0  0  0  0  0  0
   -1.8849   -0.9269    2.3015 C   0  0  0  0  0  0  0  0  0  0  0  0
   -1.4263   -2.1413    2.8863 C   0  0  0  0  0  0  0  0  0  0  0  0
   -0.2402   -2.2520    3.5287 N   0  0  0  0  0  0  0  0  0  0  0  0
    0.5249   -1.1443    3.6066 C   0  0  0  0  0  0  0  0  0  0  0  0
    1.6828   -1.1688    4.3896 C   0  0  0  0  0  0  0  0  0  0  0  0
    2.5250   -0.0755    4.4636 C   0  0  0  0  0  0  0  0  0  0  0  0
    2.2342    1.0780    3.7615 C   0  0  0  0  0  0  0  0  0  0  0  0
   -3.2872   -0.7637    2.0456 C   0  0  0  0  0  0  0  0  0  0  0  0
   -4.0998   -1.8883    2.0923 C   0  0  0  0  0  0  0  0  0  0  0  0
   -3.6060   -3.1230    2.4948 C   0  0  0  0  0  0  0  0  0  0  0  0
   -2.3012   -3.2375    2.9121 C   0  0  0  0  0  0  0  0  0  0  0  0
   -3.7695    0.5248    1.8614 O   0  0  0  0  0  0  0  0  0  0  0  0
   -2.4771    0.1132   -0.5010 O   0  0  0  0  0  0  0  0  0  0  0  0
   -1.6436    4.8951   -0.9254 C   0  0  0  0  0  0  0  0  0  0  0  0
   -4.5131   -4.2878    2.5693 C   0  0  0  0  0  0  0  0  0  0  0  0
    0.1392    4.4246    0.9829 H   0  0  0  0  0  0  0  0  0  0  0  0
   -2.8058    2.5165   -1.3895 H   0  0  0  0  0  0  0  0  0  0  0  0
    2.8982    1.9195    3.8372 H   0  0  0  0  0  0  0  0  0  0  0  0
    1.9249   -2.0527    4.9510 H   0  0  0  0  0  0  0  0  0  0  0  0
   -1.9576   -4.1756    3.3079 H   0  0  0  0  0  0  0  0  0  0  0  0
   -5.1450   -1.8219    1.8564 H   0  0  0  0  0  0  0  0  0  0  0  0
   -0.8463    5.8061   -0.8132 O   0  0  0  0  0  0  0  0  0  0  0  0
   -2.7805    4.9687   -1.6773 O   0  0  0  0  0  0  0  0  0  0  0  0
   -2.8470    6.2151   -2.2897 C   0  0  0  0  0  0  0  0  0  0  0  0
    3.7370   -0.1268    5.3055 C   0  0  0  0  0  0  0  0  0  0  0  0
    3.8702   -1.0154    6.1242 O   0  0  0  0  0  0  0  0  0  0  0  0
    4.6458    0.8722    5.1004 O   0  0  0  0  0  0  0  0  0  0  0  0
    5.6746    0.7607    6.0238 C   0  0  0  0  0  0  0  0  0  0  0  0
   -5.6631   -4.1834    2.1882 O   0  0  0  0  0  0  0  0  0  0  0  0
   -3.9818   -5.4341    3.0869 O   0  0  0  0  0  0  0  0  0  0  0  0
   -4.9548   -6.4267    3.1080 C   0  0  0  0  0  0  0  0  0  0  0  0
   -5.1290    0.6198    1.5238 C   0  0  0  0  0  0  0  0  0  0  0  0
   -1.5503   -0.9012   -0.8298 C   0  0  0  0  0  0  0  0  0  0  0  0
   -4.5255   -7.3398    3.5259 H   0  0  0  0  0  0  0  0  0  0  0  0
   -5.2996   -6.6032    2.0861 H   0  0  0  0  0  0  0  0  0  0  0  0
   -5.7916   -6.0861    3.7230 H   0  0  0  0  0  0  0  0  0  0  0  0
    6.4757    1.4530    5.7563 H   0  0  0  0  0  0  0  0  0  0  0  0
    6.0404   -0.2697    6.0313 H   0  0  0  0  0  0  0  0  0  0  0  0
    5.2640    1.0176    7.0015 H   0  0  0  0  0  0  0  0  0  0  0  0
   -2.0981   -1.7537   -1.2326 H   0  0  0  0  0  0  0  0  0  0  0  0
   -0.9948   -1.2132    0.0533 H   0  0  0  0  0  0  0  0  0  0  0  0
   -0.8591   -0.5222   -1.5834 H   0  0  0  0  0  0  0  0  0  0  0  0
   -5.3624    1.6748    1.3741 H   0  0  0  0  0  0  0  0  0  0  0  0
   -5.7423    0.2295    2.3371 H   0  0  0  0  0  0  0  0  0  0  0  0
   -5.3116    0.0752    0.5960 H   0  0  0  0  0  0  0  0  0  0  0  0
   -3.7587    6.2729   -2.8880 H   0  0  0  0  0  0  0  0  0  0  0  0
   -1.9682    6.3407   -2.9274 H   0  0  0  0  0  0  0  0  0  0  0  0
   -2.8501    6.9883   -1.5172 H   0  0  0  0  0  0  0  0  0  0  0  0
   -2.9691    1.6438    4.7336 C   0  0  0  0  0  0  0  0  0  0  0  0
   -2.5626    0.7273    5.6965 C   0  0  0  0  0  0  0  0  0  0  0  0
   -1.3890    1.0226    6.4752 C   0  0  0  0  0  0  0  0  0  0  0  0
   -0.5129    2.0488    6.0163 C   0  0  0  0  0  0  0  0  0  0  0  0
   -0.9684    2.9149    5.0104 C   0  0  0  0  0  0  0  0  0  0  0  0
   -2.1950    2.7505    4.4120 C   0  0  0  0  0  0  0  0  0  0  0  0
   -1.0034    0.3077    7.6538 C   0  0  0  0  0  0  0  0  0  0  0  0
    0.3450    0.3881    8.0221 C   0  0  0  0  0  0  0  0  0  0  0  0
    1.1873    1.3668    7.4222 C   0  0  0  0  0  0  0  0  0  0  0  0
    0.7444    2.2259    6.4836 N   0  0  0  0  0  0  0  0  0  0  0  0
   -1.8491   -0.4562    8.5213 C   0  0  0  0  0  0  0  0  0  0  0  0
   -1.2274   -1.3966    9.3913 C   0  0  0  0  0  0  0  0  0  0  0  0
    0.1048   -1.4372    9.6138 N   0  0  0  0  0  0  0  0  0  0  0  0
    0.8552   -0.4874    9.0224 C   0  0  0  0  0  0  0  0  0  0  0  0
    2.1928   -0.3482    9.4015 C   0  0  0  0  0  0  0  0  0  0  0  0
    3.0031    0.6316    8.8612 C   0  0  0  0  0  0  0  0  0  0  0  0
    2.5056    1.4742    7.8819 C   0  0  0  0  0  0  0  0  0  0  0  0
   -3.2678   -0.2556    8.6202 C   0  0  0  0  0  0  0  0  0  0  0  0
   -4.0155   -1.1788    9.3409 C   0  0  0  0  0  0  0  0  0  0  0  0
   -3.4109   -2.2052   10.0556 C   0  0  0  0  0  0  0  0  0  0  0  0
   -2.0406   -2.2866   10.1068 C   0  0  0  0  0  0  0  0  0  0  0  0
   -3.8155    0.8934    8.0638 O   0  0  0  0  0  0  0  0  0  0  0  0
   -3.2982   -0.4679    5.7967 O   0  0  0  0  0  0  0  0  0  0  0  0
   -2.6498    3.7282    3.3984 C   0  0  0  0  0  0  0  0  0  0  0  0
   -4.2386   -3.1642   10.8186 C   0  0  0  0  0  0  0  0  0  0  0  0
   -0.3418    3.7294    4.6939 H   0  0  0  0  0  0  0  0  0  0  0  0
   -3.8675    1.4532    4.1761 H   0  0  0  0  0  0  0  0  0  0  0  0
    3.1413    2.2351    7.4684 H   0  0  0  0  0  0  0  0  0  0  0  0
    2.5978   -0.9964   10.1577 H   0  0  0  0  0  0  0  0  0  0  0  0
   -1.5815   -3.0345   10.7273 H   0  0  0  0  0  0  0  0  0  0  0  0
   -5.0846   -1.0989    9.3953 H   0  0  0  0  0  0  0  0  0  0  0  0
   -1.9128    4.6426    3.0835 O   0  0  0  0  0  0  0  0  0  0  0  0
   -3.8989    3.5505    2.8760 O   0  0  0  0  0  0  0  0  0  0  0  0
   -4.1614    4.5568    1.9523 C   0  0  0  0  0  0  0  0  0  0  0  0
    4.3821    0.7806    9.3806 C   0  0  0  0  0  0  0  0  0  0  0  0
    4.7645    0.0478   10.2728 O   0  0  0  0  0  0  0  0  0  0  0  0
    5.1556    1.7601    8.8275 O   0  0  0  0  0  0  0  0  0  0  0  0
    6.3862    1.7964    9.4757 C   0  0  0  0  0  0  0  0  0  0  0  0
   -5.4506   -3.0720   10.7927 O   0  0  0  0  0  0  0  0  0  0  0  0
   -3.5602   -4.1183   11.5219 O   0  0  0  0  0  0  0  0  0  0  0  0
   -4.4657   -4.9376   12.1863 C   0  0  0  0  0  0  0  0  0  0  0  0
   -5.2198    0.9333    8.0313 C   0  0  0  0  0  0  0  0  0  0  0  0
   -2.5078   -1.6316    5.7493 C   0  0  0  0  0  0  0  0  0  0  0  0
   -3.9161   -5.7043   12.7366 H   0  0  0  0  0  0  0  0  0  0  0  0
   -5.1275   -5.4013   11.4507 H   0  0  0  0  0  0  0  0  0  0  0  0
   -5.0540   -4.3263   12.8751 H   0  0  0  0  0  0  0  0  0  0  0  0
    7.0083    2.5724    9.0249 H   0  0  0  0  0  0  0  0  0  0  0  0
    6.8679    0.8202    9.3791 H   0  0  0  0  0  0  0  0  0  0  0  0
    6.2181    2.0154   10.5330 H   0  0  0  0  0  0  0  0  0  0  0  0
   -3.1207   -2.4536    5.3777 H   0  0  0  0  0  0  0  0  0  0  0  0
   -2.1321   -1.8822    6.7393 H   0  0  0  0  0  0  0  0  0  0  0  0
   -1.6776   -1.4485    5.0689 H   0  0  0  0  0  0  0  0  0  0  0  0
   -5.5212    1.8301    7.4885 H   0  0  0  0  0  0  0  0  0  0  0  0
   -5.6138    0.9811    9.0475 H   0  0  0  0  0  0  0  0  0  0  0  0
   -5.5954    0.0546    7.5042 H   0  0  0  0  0  0  0  0  0  0  0  0
   -5.1920    4.4675    1.6033 H   0  0  0  0  0  0  0  0  0  0  0  0
   -3.4704    4.4519    1.1133 H   0  0  0  0  0  0  0  0  0  0  0  0
   -4.0070    5.5260    2.4337 H   0  0  0  0  0  0  0  0  0  0  0  0
  1  6  2  0  0  0  0
  1  2  1  0  0  0  0
  2  3  2  0  0  0  0
  3  7  1  0  0  0  0
  4  3  1  0  0  0  0
  4 10  1  0  0  0  0
  5  4  2  0  0  0  0
  6  5  1  0  0  0  0
  7 11  2  0  0  0  0
  7  8  1  0  0  0  0
  8 14  1  0  0  0  0
  9  8  2  0  0  0  0
  9 17  1  0  0  0  0
 10  9  1  0  0  0  0
 11 12  1  0  0  0  0
 12 21  1  0  0  0  0
 12 13  2  0  0  0  0
 14 13  1  0  0  0  0
 14 15  2  0  0  0  0
 15 29  1  0  0  0  0
 16 15  1  0  0  0  0
 16 35  1  0  0  0  0
 17 16  2  0  0  0  0
 18 11  1  0  0  0  0
 18 19  2  0  0  0  0
 19 20  1  0  0  0  0
 20 21  2  0  0  0  0
 20 25  1  0  0  0  0
 21 30  1  0  0  0  0
 22 18  1  0  0  0  0
 23  2  1  0  0  0  0
 24  6  1  0  0  0  0
 25 40  1  0  0  0  0
 26  5  1  0  0  0  0
 27  1  1  0  0  0  0
 28 17  1  0  0  0  0
 31 19  1  0  0  0  0
 32 24  2  0  0  0  0
 33 34  1  0  0  0  0
 33 24  1  0  0  0  0
 34 57  1  0  0  0  0
 34 58  1  0  0  0  0
 35 36  2  0  0  0  0
 37 35  1  0  0  0  0
 38 37  1  0  0  0  0
 39 25  2  0  0  0  0
 41 44  1  0  0  0  0
 41 40  1  0  0  0  0
 42 54  1  0  0  0  0
 42 22  1  0  0  0  0
 43 23  1  0  0  0  0
 45 41  1  0  0  0  0
 46 41  1  0  0  0  0
 47 38  1  0  0  0  0
 48 38  1  0  0  0  0
 49 38  1  0  0  0  0
 50 43  1  0  0  0  0
 51 43  1  0  0  0  0
 52 43  1  0  0  0  0
 53 42  1  0  0  0  0
 55 42  1  0  0  0  0
 56 34  1  0  0  0  0
 59 64  2  0  0  0  0
 59 60  1  0  0  0  0
 60 61  2  0  0  0  0
 61 65  1  0  0  0  0
 62 61  1  0  0  0  0
 62 68  1  0  0  0  0
 63 62  2  0  0  0  0
 64 63  1  0  0  0  0
 65 69  2  0  0  0  0
 65 66  1  0  0  0  0
 66 72  1  0  0  0  0
 67 66  2  0  0  0  0
 67 75  1  0  0  0  0
 68 67  1  0  0  0  0
 69 70  1  0  0  0  0
 70 79  1  0  0  0  0
 70 71  2  0  0  0  0
 72 71  1  0  0  0  0
 72 73  2  0  0  0  0
 73 87  1  0  0  0  0
 74 73  1  0  0  0  0
 74 93  1  0  0  0  0
 75 74  2  0  0  0  0
 76 69  1  0  0  0  0
 76 77  2  0  0  0  0
 77 78  1  0  0  0  0
 78 79  2  0  0  0  0
 78 83  1  0  0  0  0
 79 88  1  0  0  0  0
 80 76  1  0  0  0  0
 81 60  1  0  0  0  0
 82 64  1  0  0  0  0
 83 98  1  0  0  0  0
 84 63  1  0  0  0  0
 85 59  1  0  0  0  0
 86 75  1  0  0  0  0
 89 77  1  0  0  0  0
 90 82  2  0  0  0  0
 91 92  1  0  0  0  0
 91 82  1  0  0  0  0
 92115  1  0  0  0  0
 92116  1  0  0  0  0
 93 94  2  0  0  0  0
 95 93  1  0  0  0  0
 96 95  1  0  0  0  0
 97 83  2  0  0  0  0
 99102  1  0  0  0  0
 99 98  1  0  0  0  0
100112  1  0  0  0  0
100 80  1  0  0  0  0
101 81  1  0  0  0  0
103 99  1  0  0  0  0
104 99  1  0  0  0  0
105 96  1  0  0  0  0
106 96  1  0  0  0  0
107 96  1  0  0  0  0
108101  1  0  0  0  0
109101  1  0  0  0  0
110101  1  0  0  0  0
111100  1  0  0  0  0
113100  1  0  0  0  0
114 92  1  0  0  0  0
M  END
