 energy: -213.924042579898 gnorm: 0.000777599971 xtb: 6.7.1 (edcfbbe)
          03042512033D

116124  0     0  0            999 V2000
   -2.0269    2.5983   -0.7316 C   0  0  0  0  0  0  0  0  0  0  0  0
   -1.8472    1.4125   -0.0543 C   0  0  0  0  0  0  0  0  0  0  0  0
   -1.0816    1.3925    1.1358 C   0  0  0  0  0  0  0  0  0  0  0  0
   -0.2397    2.5227    1.4075 C   0  0  0  0  0  0  0  0  0  0  0  0
   -0.4360    3.7203    0.6848 C   0  0  0  0  0  0  0  0  0  0  0  0
   -1.3689    3.7723   -0.3213 C   0  0  0  0  0  0  0  0  0  0  0  0
   -1.0204    0.3101    2.0679 C   0  0  0  0  0  0  0  0  0  0  0  0
    0.1089    0.2568    2.8990 C   0  0  0  0  0  0  0  0  0  0  0  0
    0.9990    1.3702    2.9618 C   0  0  0  0  0  0  0  0  0  0  0  0
    0.7542    2.4929    2.2935 N   0  0  0  0  0  0  0  0  0  0  0  0
   -1.9853   -0.7334    2.2240 C   0  0  0  0  0  0  0  0  0  0  0  0
   -1.5380   -1.9263    2.8752 C   0  0  0  0  0  0  0  0  0  0  0  0
   -0.3921   -2.0012    3.5572 N   0  0  0  0  0  0  0  0  0  0  0  0
    0.3689   -0.9153    3.6682 C   0  0  0  0  0  0  0  0  0  0  0  0
    1.5157   -0.9470    4.4868 C   0  0  0  0  0  0  0  0  0  0  0  0
    2.3840    0.1360    4.5259 C   0  0  0  0  0  0  0  0  0  0  0  0
    2.1359    1.2880    3.7914 C   0  0  0  0  0  0  0  0  0  0  0  0
   -3.3472   -0.6498    1.8269 C   0  0  0  0  0  0  0  0  0  0  0  0
   -4.1128   -1.7984    1.8137 C   0  0  0  0  0  0  0  0  0  0  0  0
   -3.5961   -3.0208    2.2766 C   0  0  0  0  0  0  0  0  0  0  0  0
   -2.3456   -3.0844    2.8391 C   0  0  0  0  0  0  0  0  0  0  0  0
   -3.8277    0.5816    1.5591 O   0  0  0  0  0  0  0  0  0  0  0  0
   -2.4174    0.2801   -0.5966 O   0  0  0  0  0  0  0  0  0  0  0  0
   -1.6106    5.0612   -1.0184 C   0  0  0  0  0  0  0  0  0  0  0  0
   -4.4879   -4.2054    2.1939 C   0  0  0  0  0  0  0  0  0  0  0  0
    0.1536    4.5844    0.9426 H   0  0  0  0  0  0  0  0  0  0  0  0
   -2.6576    2.6101   -1.6065 H   0  0  0  0  0  0  0  0  0  0  0  0
    2.7972    2.1358    3.8453 H   0  0  0  0  0  0  0  0  0  0  0  0
    1.7292   -1.8308    5.0677 H   0  0  0  0  0  0  0  0  0  0  0  0
   -1.9638   -3.9903    3.2787 H   0  0  0  0  0  0  0  0  0  0  0  0
   -5.1316   -1.7998    1.4624 H   0  0  0  0  0  0  0  0  0  0  0  0
   -0.8646    6.0053   -1.0018 O   0  0  0  0  0  0  0  0  0  0  0  0
   -2.7885    5.0633   -1.6664 O   0  0  0  0  0  0  0  0  0  0  0  0
   -3.1109    6.2637   -2.3527 C   0  0  0  0  0  0  0  0  0  0  0  0
    3.6042    0.0101    5.3696 C   0  0  0  0  0  0  0  0  0  0  0  0
    3.7633   -0.8431    6.2083 O   0  0  0  0  0  0  0  0  0  0  0  0
    4.5209    0.9292    5.0631 O   0  0  0  0  0  0  0  0  0  0  0  0
    5.7406    0.8707    5.7900 C   0  0  0  0  0  0  0  0  0  0  0  0
   -5.5811   -4.1964    1.6820 O   0  0  0  0  0  0  0  0  0  0  0  0
   -3.9470   -5.2955    2.7522 O   0  0  0  0  0  0  0  0  0  0  0  0
   -4.7404   -6.4720    2.7092 C   0  0  0  0  0  0  0  0  0  0  0  0
   -5.1463    0.7004    1.0797 C   0  0  0  0  0  0  0  0  0  0  0  0
   -1.5094   -0.7308   -0.9823 C   0  0  0  0  0  0  0  0  0  0  0  0
   -4.1610   -7.2472    3.2039 H   0  0  0  0  0  0  0  0  0  0  0  0
   -4.9510   -6.7505    1.6746 H   0  0  0  0  0  0  0  0  0  0  0  0
   -5.6878   -6.3100    3.2275 H   0  0  0  0  0  0  0  0  0  0  0  0
    6.4272    1.5454    5.2845 H   0  0  0  0  0  0  0  0  0  0  0  0
    6.1311   -0.1492    5.7910 H   0  0  0  0  0  0  0  0  0  0  0  0
    5.5773    1.1883    6.8207 H   0  0  0  0  0  0  0  0  0  0  0  0
   -2.1188   -1.5495   -1.3609 H   0  0  0  0  0  0  0  0  0  0  0  0
   -0.9024   -1.0922   -0.1472 H   0  0  0  0  0  0  0  0  0  0  0  0
   -0.8452   -0.3722   -1.7766 H   0  0  0  0  0  0  0  0  0  0  0  0
   -5.2994    1.7634    0.9080 H   0  0  0  0  0  0  0  0  0  0  0  0
   -5.8734    0.3415    1.8148 H   0  0  0  0  0  0  0  0  0  0  0  0
   -5.2719    0.1575    0.1390 H   0  0  0  0  0  0  0  0  0  0  0  0
   -4.1021    6.1173   -2.7740 H   0  0  0  0  0  0  0  0  0  0  0  0
   -2.3821    6.4558   -3.1429 H   0  0  0  0  0  0  0  0  0  0  0  0
   -3.1066    7.1083   -1.6608 H   0  0  0  0  0  0  0  0  0  0  0  0
   -2.7386    1.2961    4.6744 C   0  0  0  0  0  0  0  0  0  0  0  0
   -2.3362    0.3627    5.6178 C   0  0  0  0  0  0  0  0  0  0  0  0
   -1.2489    0.6709    6.4695 C   0  0  0  0  0  0  0  0  0  0  0  0
   -0.3736    1.7428    6.0761 C   0  0  0  0  0  0  0  0  0  0  0  0
   -0.8005    2.6562    5.0918 C   0  0  0  0  0  0  0  0  0  0  0  0
   -2.0085    2.4712    4.4570 C   0  0  0  0  0  0  0  0  0  0  0  0
   -0.9344    0.0489    7.7188 C   0  0  0  0  0  0  0  0  0  0  0  0
    0.3917    0.1596    8.1685 C   0  0  0  0  0  0  0  0  0  0  0  0
    1.2696    1.1009    7.5551 C   0  0  0  0  0  0  0  0  0  0  0  0
    0.8353    1.9300    6.6090 N   0  0  0  0  0  0  0  0  0  0  0  0
   -1.8480   -0.5867    8.6155 C   0  0  0  0  0  0  0  0  0  0  0  0
   -1.2828   -1.4302    9.6265 C   0  0  0  0  0  0  0  0  0  0  0  0
    0.0246   -1.4863    9.8856 N   0  0  0  0  0  0  0  0  0  0  0  0
    0.8357   -0.6310    9.2685 C   0  0  0  0  0  0  0  0  0  0  0  0
    2.1755   -0.5079    9.6866 C   0  0  0  0  0  0  0  0  0  0  0  0
    3.0173    0.4285    9.0996 C   0  0  0  0  0  0  0  0  0  0  0  0
    2.5789    1.2382    8.0587 C   0  0  0  0  0  0  0  0  0  0  0  0
   -3.2524   -0.3537    8.6313 C   0  0  0  0  0  0  0  0  0  0  0  0
   -4.0533   -1.1042    9.4651 C   0  0  0  0  0  0  0  0  0  0  0  0
   -3.4978   -2.0656   10.3300 C   0  0  0  0  0  0  0  0  0  0  0  0
   -2.1377   -2.2142   10.4338 C   0  0  0  0  0  0  0  0  0  0  0  0
   -3.7035    0.6507    7.8458 O   0  0  0  0  0  0  0  0  0  0  0  0
   -3.0375   -0.8012    5.6088 O   0  0  0  0  0  0  0  0  0  0  0  0
   -2.4623    3.5040    3.4921 C   0  0  0  0  0  0  0  0  0  0  0  0
   -4.4480   -2.8561   11.1534 C   0  0  0  0  0  0  0  0  0  0  0  0
   -0.1723    3.4970    4.8468 H   0  0  0  0  0  0  0  0  0  0  0  0
   -3.6193    1.0943    4.0886 H   0  0  0  0  0  0  0  0  0  0  0  0
    3.2148    1.9957    7.6308 H   0  0  0  0  0  0  0  0  0  0  0  0
    2.5353   -1.1233   10.4958 H   0  0  0  0  0  0  0  0  0  0  0  0
   -1.6923   -2.8815   11.1515 H   0  0  0  0  0  0  0  0  0  0  0  0
   -5.1238   -0.9822    9.4893 H   0  0  0  0  0  0  0  0  0  0  0  0
   -1.8236    4.4860    3.2060 O   0  0  0  0  0  0  0  0  0  0  0  0
   -3.6778    3.2462    2.9899 O   0  0  0  0  0  0  0  0  0  0  0  0
   -4.1889    4.1896    2.0602 C   0  0  0  0  0  0  0  0  0  0  0  0
    4.3904    0.5478    9.6586 C   0  0  0  0  0  0  0  0  0  0  0  0
    4.8101   -0.1087   10.5767 O   0  0  0  0  0  0  0  0  0  0  0  0
    5.1240    1.4897    9.0426 O   0  0  0  0  0  0  0  0  0  0  0  0
    6.4391    1.6708    9.5502 C   0  0  0  0  0  0  0  0  0  0  0  0
   -5.6468   -2.7125   11.1280 O   0  0  0  0  0  0  0  0  0  0  0  0
   -3.8322   -3.7560   11.9281 O   0  0  0  0  0  0  0  0  0  0  0  0
   -4.6770   -4.5537   12.7435 C   0  0  0  0  0  0  0  0  0  0  0  0
   -5.0837    0.9258    7.8135 C   0  0  0  0  0  0  0  0  0  0  0  0
   -2.4435   -2.0081    6.0413 C   0  0  0  0  0  0  0  0  0  0  0  0
   -4.0265   -5.2533   13.2619 H   0  0  0  0  0  0  0  0  0  0  0  0
   -5.4048   -5.0873   12.1284 H   0  0  0  0  0  0  0  0  0  0  0  0
   -5.2155   -3.9281   13.4588 H   0  0  0  0  0  0  0  0  0  0  0  0
    6.8596    2.5189    9.0155 H   0  0  0  0  0  0  0  0  0  0  0  0
    7.0375    0.7733    9.3800 H   0  0  0  0  0  0  0  0  0  0  0  0
    6.4049    1.8703   10.6228 H   0  0  0  0  0  0  0  0  0  0  0  0
   -2.8632   -2.7871    5.4035 H   0  0  0  0  0  0  0  0  0  0  0  0
   -2.6878   -2.2325    7.0825 H   0  0  0  0  0  0  0  0  0  0  0  0
   -1.3586   -1.9945    5.9183 H   0  0  0  0  0  0  0  0  0  0  0  0
   -5.1942    1.7583    7.1206 H   0  0  0  0  0  0  0  0  0  0  0  0
   -5.4572    1.2173    8.7997 H   0  0  0  0  0  0  0  0  0  0  0  0
   -5.6512    0.0671    7.4437 H   0  0  0  0  0  0  0  0  0  0  0  0
   -5.2734    4.1659    2.1497 H   0  0  0  0  0  0  0  0  0  0  0  0
   -3.8825    3.9150    1.0483 H   0  0  0  0  0  0  0  0  0  0  0  0
   -3.8057    5.1864    2.2891 H   0  0  0  0  0  0  0  0  0  0  0  0
  1  6  2  0  0  0  0
  1  2  1  0  0  0  0
  2  3  2  0  0  0  0
  3  7  1  0  0  0  0
  4  3  1  0  0  0  0
  4 10  1  0  0  0  0
  5  4  2  0  0  0  0
  6  5  1  0  0  0  0
  7 11  2  0  0  0  0
  7  8  1  0  0  0  0
  8 14  1  0  0  0  0
  9  8  2  0  0  0  0
  9 17  1  0  0  0  0
 10  9  1  0  0  0  0
 11 12  1  0  0  0  0
 12 21  1  0  0  0  0
 12 13  2  0  0  0  0
 14 13  1  0  0  0  0
 14 15  2  0  0  0  0
 15 29  1  0  0  0  0
 16 15  1  0  0  0  0
 16 35  1  0  0  0  0
 17 16  2  0  0  0  0
 18 11  1  0  0  0  0
 18 19  2  0  0  0  0
 19 20  1  0  0  0  0
 20 21  2  0  0  0  0
 20 25  1  0  0  0  0
 21 30  1  0  0  0  0
 22 18  1  0  0  0  0
 23  2  1  0  0  0  0
 24  6  1  0  0  0  0
 25 40  1  0  0  0  0
 26  5  1  0  0  0  0
 27  1  1  0  0  0  0
 28 17  1  0  0  0  0
 31 19  1  0  0  0  0
 32 24  2  0  0  0  0
 33 34  1  0  0  0  0
 33 24  1  0  0  0  0
 34 57  1  0  0  0  0
 34 58  1  0  0  0  0
 35 36  2  0  0  0  0
 37 35  1  0  0  0  0
 38 37  1  0  0  0  0
 39 25  2  0  0  0  0
 41 44  1  0  0  0  0
 41 40  1  0  0  0  0
 42 54  1  0  0  0  0
 42 22  1  0  0  0  0
 43 23  1  0  0  0  0
 45 41  1  0  0  0  0
 46 41  1  0  0  0  0
 47 38  1  0  0  0  0
 48 38  1  0  0  0  0
 49 38  1  0  0  0  0
 50 43  1  0  0  0  0
 51 43  1  0  0  0  0
 52 43  1  0  0  0  0
 53 42  1  0  0  0  0
 55 42  1  0  0  0  0
 56 34  1  0  0  0  0
 59 64  2  0  0  0  0
 59 60  1  0  0  0  0
 60 61  2  0  0  0  0
 61 65  1  0  0  0  0
 62 61  1  0  0  0  0
 62 68  1  0  0  0  0
 63 62  2  0  0  0  0
 64 63  1  0  0  0  0
 65 69  2  0  0  0  0
 65 66  1  0  0  0  0
 66 72  1  0  0  0  0
 67 66  2  0  0  0  0
 67 75  1  0  0  0  0
 68 67  1  0  0  0  0
 69 70  1  0  0  0  0
 70 79  1  0  0  0  0
 70 71  2  0  0  0  0
 72 71  1  0  0  0  0
 72 73  2  0  0  0  0
 73 87  1  0  0  0  0
 74 73  1  0  0  0  0
 74 93  1  0  0  0  0
 75 74  2  0  0  0  0
 76 69  1  0  0  0  0
 76 77  2  0  0  0  0
 77 78  1  0  0  0  0
 78 79  2  0  0  0  0
 78 83  1  0  0  0  0
 79 88  1  0  0  0  0
 80 76  1  0  0  0  0
 81 60  1  0  0  0  0
 82 64  1  0  0  0  0
 83 98  1  0  0  0  0
 84 63  1  0  0  0  0
 85 59  1  0  0  0  0
 86 75  1  0  0  0  0
 89 77  1  0  0  0  0
 90 82  2  0  0  0  0
 91 92  1  0  0  0  0
 91 82  1  0  0  0  0
 92115  1  0  0  0  0
 92116  1  0  0  0  0
 93 94  2  0  0  0  0
 95 93  1  0  0  0  0
 96 95  1  0  0  0  0
 97 83  2  0  0  0  0
 99102  1  0  0  0  0
 99 98  1  0  0  0  0
100112  1  0  0  0  0
100 80  1  0  0  0  0
101 81  1  0  0  0  0
103 99  1  0  0  0  0
104 99  1  0  0  0  0
105 96  1  0  0  0  0
106 96  1  0  0  0  0
107 96  1  0  0  0  0
108101  1  0  0  0  0
109101  1  0  0  0  0
110101  1  0  0  0  0
111100  1  0  0  0  0
113100  1  0  0  0  0
114 92  1  0  0  0  0
M  END
