 xtb: 6.7.1 (edcfbbe)
          12022412253D

 78 82  0     0  0            999 V2000
   -0.9716    1.8413   -0.1282 C   0  0  0  0  0  0  0  0  0  0  0  0
   -1.0176    0.4714    0.0052 C   0  0  0  0  0  0  0  0  0  0  0  0
   -0.0463   -0.2353    0.7551 C   0  0  0  0  0  0  0  0  0  0  0  0
    1.1009    0.5125    1.1490 C   0  0  0  0  0  0  0  0  0  0  0  0
    1.1121    1.9109    1.0122 C   0  0  0  0  0  0  0  0  0  0  0  0
    0.0810    2.5996    0.4281 C   0  0  0  0  0  0  0  0  0  0  0  0
   -0.0968   -1.6376    1.0070 C   0  0  0  0  0  0  0  0  0  0  0  0
    1.1352   -2.3030    1.2206 C   0  0  0  0  0  0  0  0  0  0  0  0
    2.3151   -1.5783    1.5264 C   0  0  0  0  0  0  0  0  0  0  0  0
    2.2963   -0.1359    1.6392 C   0  0  0  0  0  0  0  0  0  0  0  0
   -1.2834   -2.4274    1.0550 C   0  0  0  0  0  0  0  0  0  0  0  0
   -1.2033   -3.8379    0.8660 C   0  0  0  0  0  0  0  0  0  0  0  0
    0.0676   -4.5222    0.8075 C   0  0  0  0  0  0  0  0  0  0  0  0
    1.2255   -3.7164    1.1325 C   0  0  0  0  0  0  0  0  0  0  0  0
    2.4584   -4.3470    1.3434 C   0  0  0  0  0  0  0  0  0  0  0  0
    3.6139   -3.6404    1.6519 C   0  0  0  0  0  0  0  0  0  0  0  0
    3.5231   -2.2613    1.7417 C   0  0  0  0  0  0  0  0  0  0  0  0
   -2.5569   -1.9214    1.4068 C   0  0  0  0  0  0  0  0  0  0  0  0
   -3.6906   -2.6994    1.3304 C   0  0  0  0  0  0  0  0  0  0  0  0
   -3.6246   -4.0590    0.9561 C   0  0  0  0  0  0  0  0  0  0  0  0
   -2.3789   -4.6031    0.7790 C   0  0  0  0  0  0  0  0  0  0  0  0
   -2.5851   -0.6341    1.9334 O   0  0  0  0  0  0  0  0  0  0  0  0
   -1.9683   -0.3002   -0.6586 O   0  0  0  0  0  0  0  0  0  0  0  0
    3.2843    0.5232    2.0760 O   0  0  0  0  0  0  0  0  0  0  0  0
    0.1540   -5.7589    0.5521 O   0  0  0  0  0  0  0  0  0  0  0  0
   -3.8046    0.0183    2.0367 C   0  0  0  0  0  0  0  0  0  0  0  0
   -2.8099    0.3163   -1.5715 C   0  0  0  0  0  0  0  0  0  0  0  0
   -4.9215   -4.8479    0.8255 C   0  0  0  0  0  0  0  0  0  0  0  0
   -4.6808   -6.2940    0.3836 C   0  0  0  0  0  0  0  0  0  0  0  0
   -5.6521   -4.8817    2.1772 C   0  0  0  0  0  0  0  0  0  0  0  0
   -5.8231   -4.1780   -0.2230 C   0  0  0  0  0  0  0  0  0  0  0  0
    0.0379    4.1173    0.3016 C   0  0  0  0  0  0  0  0  0  0  0  0
   -1.2498    4.6484    0.9504 C   0  0  0  0  0  0  0  0  0  0  0  0
    1.2251    4.7916    0.9947 C   0  0  0  0  0  0  0  0  0  0  0  0
    0.0641    4.5192   -1.1815 C   0  0  0  0  0  0  0  0  0  0  0  0
    4.9142   -4.4063    1.8790 C   0  0  0  0  0  0  0  0  0  0  0  0
    6.0974   -3.4886    2.2012 C   0  0  0  0  0  0  0  0  0  0  0  0
    5.2618   -5.2041    0.6138 C   0  0  0  0  0  0  0  0  0  0  0  0
    4.7288   -5.3754    3.0556 C   0  0  0  0  0  0  0  0  0  0  0  0
    5.6388   -5.9536    3.2351 H   0  0  0  0  0  0  0  0  0  0  0  0
    3.9126   -6.0640    2.8560 H   0  0  0  0  0  0  0  0  0  0  0  0
    4.4867   -4.8178    3.9586 H   0  0  0  0  0  0  0  0  0  0  0  0
    7.0018   -4.0827    2.3555 H   0  0  0  0  0  0  0  0  0  0  0  0
    5.9042   -2.9158    3.1049 H   0  0  0  0  0  0  0  0  0  0  0  0
    6.2780   -2.7939    1.3845 H   0  0  0  0  0  0  0  0  0  0  0  0
    6.1776   -5.7837    0.7551 H   0  0  0  0  0  0  0  0  0  0  0  0
    5.4058   -4.5244   -0.2241 H   0  0  0  0  0  0  0  0  0  0  0  0
    4.4547   -5.8852    0.3595 H   0  0  0  0  0  0  0  0  0  0  0  0
   -6.7674   -4.7172   -0.3284 H   0  0  0  0  0  0  0  0  0  0  0  0
   -5.3187   -4.1659   -1.1872 H   0  0  0  0  0  0  0  0  0  0  0  0
   -6.0429   -3.1503    0.0543 H   0  0  0  0  0  0  0  0  0  0  0  0
   -6.5735   -5.4644    2.1081 H   0  0  0  0  0  0  0  0  0  0  0  0
   -5.9061   -3.8777    2.5074 H   0  0  0  0  0  0  0  0  0  0  0  0
   -5.0098   -5.3325    2.9309 H   0  0  0  0  0  0  0  0  0  0  0  0
   -5.6340   -6.8146    0.2657 H   0  0  0  0  0  0  0  0  0  0  0  0
   -4.0874   -6.8265    1.1221 H   0  0  0  0  0  0  0  0  0  0  0  0
   -4.1526   -6.3194   -0.5660 H   0  0  0  0  0  0  0  0  0  0  0  0
   -3.5732    1.0611    2.2676 H   0  0  0  0  0  0  0  0  0  0  0  0
   -4.4343   -0.3886    2.8462 H   0  0  0  0  0  0  0  0  0  0  0  0
   -4.3788   -0.0210    1.1009 H   0  0  0  0  0  0  0  0  0  0  0  0
   -3.3986   -0.4844   -2.0255 H   0  0  0  0  0  0  0  0  0  0  0  0
   -2.2542    0.8436   -2.3628 H   0  0  0  0  0  0  0  0  0  0  0  0
   -3.5003    1.0339   -1.0997 H   0  0  0  0  0  0  0  0  0  0  0  0
    0.0493    5.6058   -1.2918 H   0  0  0  0  0  0  0  0  0  0  0  0
   -0.7930    4.1098   -1.7106 H   0  0  0  0  0  0  0  0  0  0  0  0
    0.9666    4.1331   -1.6510 H   0  0  0  0  0  0  0  0  0  0  0  0
    1.2550    4.5209    2.0469 H   0  0  0  0  0  0  0  0  0  0  0  0
    1.1385    5.8779    0.9168 H   0  0  0  0  0  0  0  0  0  0  0  0
    2.1613    4.4876    0.5341 H   0  0  0  0  0  0  0  0  0  0  0  0
   -1.3012    5.7375    0.8820 H   0  0  0  0  0  0  0  0  0  0  0  0
   -1.2764    4.3628    2.0000 H   0  0  0  0  0  0  0  0  0  0  0  0
   -2.1297    4.2326    0.4663 H   0  0  0  0  0  0  0  0  0  0  0  0
    2.4604   -5.4257    1.2549 H   0  0  0  0  0  0  0  0  0  0  0  0
    4.3744   -1.6408    1.9787 H   0  0  0  0  0  0  0  0  0  0  0  0
    1.9982    2.4012    1.3870 H   0  0  0  0  0  0  0  0  0  0  0  0
   -1.7434    2.3540   -0.6870 H   0  0  0  0  0  0  0  0  0  0  0  0
   -4.6509   -2.2755    1.5940 H   0  0  0  0  0  0  0  0  0  0  0  0
   -2.2287   -5.6529    0.5752 H   0  0  0  0  0  0  0  0  0  0  0  0
  1  2  4  0  0  0  0
  2  3  4  0  0  0  0
  3  4  4  0  0  0  0
  4  5  4  0  0  0  0
  1  6  4  0  0  0  0
  5  6  4  0  0  0  0
  3  7  4  0  0  0  0
  7  8  4  0  0  0  0
  8  9  4  0  0  0  0
  4 10  1  0  0  0  0
  9 10  1  0  0  0  0
  7 11  4  0  0  0  0
 11 12  4  0  0  0  0
 12 13  1  0  0  0  0
  8 14  4  0  0  0  0
 13 14  1  0  0  0  0
 14 15  4  0  0  0  0
 15 16  4  0  0  0  0
  9 17  4  0  0  0  0
 16 17  4  0  0  0  0
 11 18  4  0  0  0  0
 18 19  4  0  0  0  0
 19 20  4  0  0  0  0
 12 21  4  0  0  0  0
 20 21  4  0  0  0  0
 18 22  1  0  0  0  0
  2 23  1  0  0  0  0
 10 24  4  0  0  0  0
 13 25  4  0  0  0  0
 22 26  1  0  0  0  0
 23 27  1  0  0  0  0
 20 28  1  0  0  0  0
 28 29  1  0  0  0  0
 28 30  1  0  0  0  0
 28 31  1  0  0  0  0
  6 32  1  0  0  0  0
 32 33  1  0  0  0  0
 32 34  1  0  0  0  0
 32 35  1  0  0  0  0
 16 36  1  0  0  0  0
 36 37  1  0  0  0  0
 36 38  1  0  0  0  0
 36 39  1  0  0  0  0
 39 40  1  0  0  0  0
 39 41  1  0  0  0  0
 39 42  1  0  0  0  0
 37 43  1  0  0  0  0
 37 44  1  0  0  0  0
 37 45  1  0  0  0  0
 38 46  1  0  0  0  0
 38 47  1  0  0  0  0
 38 48  1  0  0  0  0
 31 49  1  0  0  0  0
 31 50  1  0  0  0  0
 31 51  1  0  0  0  0
 30 52  1  0  0  0  0
 30 53  1  0  0  0  0
 30 54  1  0  0  0  0
 29 55  1  0  0  0  0
 29 56  1  0  0  0  0
 29 57  1  0  0  0  0
 26 58  1  0  0  0  0
 26 59  1  0  0  0  0
 26 60  1  0  0  0  0
 27 61  1  0  0  0  0
 27 62  1  0  0  0  0
 27 63  1  0  0  0  0
 35 64  1  0  0  0  0
 35 65  1  0  0  0  0
 35 66  1  0  0  0  0
 34 67  1  0  0  0  0
 34 68  1  0  0  0  0
 34 69  1  0  0  0  0
 33 70  1  0  0  0  0
 33 71  1  0  0  0  0
 33 72  1  0  0  0  0
 15 73  1  0  0  0  0
 17 74  1  0  0  0  0
  5 75  1  0  0  0  0
  1 76  1  0  0  0  0
 19 77  1  0  0  0  0
 21 78  1  0  0  0  0
M  CHG  1   1  -2
M  END
