 xtb: 6.7.1 (edcfbbe)
          12022412253D

 78 82  0     0  0            999 V2000
   -0.9236    1.8520   -0.2265 C   0  0  0  0  0  0  0  0  0  0  0  0
   -0.9827    0.4746   -0.1248 C   0  0  0  0  0  0  0  0  0  0  0  0
   -0.0288   -0.2222    0.6652 C   0  0  0  0  0  0  0  0  0  0  0  0
    1.0684    0.5238    1.1407 C   0  0  0  0  0  0  0  0  0  0  0  0
    1.0979    1.9101    1.0246 C   0  0  0  0  0  0  0  0  0  0  0  0
    0.0837    2.6021    0.3869 C   0  0  0  0  0  0  0  0  0  0  0  0
   -0.0903   -1.6278    0.9121 C   0  0  0  0  0  0  0  0  0  0  0  0
    1.1387   -2.3015    1.1542 C   0  0  0  0  0  0  0  0  0  0  0  0
    2.2940   -1.5964    1.5447 C   0  0  0  0  0  0  0  0  0  0  0  0
    2.2426   -0.1396    1.7311 C   0  0  0  0  0  0  0  0  0  0  0  0
   -1.2861   -2.4098    0.9528 C   0  0  0  0  0  0  0  0  0  0  0  0
   -1.2196   -3.8010    0.7358 C   0  0  0  0  0  0  0  0  0  0  0  0
    0.0739   -4.4915    0.6038 C   0  0  0  0  0  0  0  0  0  0  0  0
    1.2425   -3.7004    1.0129 C   0  0  0  0  0  0  0  0  0  0  0  0
    2.4542   -4.3381    1.2313 C   0  0  0  0  0  0  0  0  0  0  0  0
    3.5937   -3.6483    1.6394 C   0  0  0  0  0  0  0  0  0  0  0  0
    3.4817   -2.2726    1.7997 C   0  0  0  0  0  0  0  0  0  0  0  0
   -2.5548   -1.8785    1.3115 C   0  0  0  0  0  0  0  0  0  0  0  0
   -3.6799   -2.6815    1.2716 C   0  0  0  0  0  0  0  0  0  0  0  0
   -3.6205   -4.0350    0.9297 C   0  0  0  0  0  0  0  0  0  0  0  0
   -2.3708   -4.5814    0.6985 C   0  0  0  0  0  0  0  0  0  0  0  0
   -2.5700   -0.5954    1.7568 O   0  0  0  0  0  0  0  0  0  0  0  0
   -1.8769   -0.2902   -0.8032 O   0  0  0  0  0  0  0  0  0  0  0  0
    3.1431    0.4845    2.2773 O   0  0  0  0  0  0  0  0  0  0  0  0
    0.1629   -5.6602    0.2510 O   0  0  0  0  0  0  0  0  0  0  0  0
   -3.7790   -0.0244    2.1853 C   0  0  0  0  0  0  0  0  0  0  0  0
   -2.7914    0.3254   -1.6729 C   0  0  0  0  0  0  0  0  0  0  0  0
   -4.9039   -4.8449    0.8756 C   0  0  0  0  0  0  0  0  0  0  0  0
   -4.6532   -6.3035    0.4854 C   0  0  0  0  0  0  0  0  0  0  0  0
   -5.5723   -4.8257    2.2583 C   0  0  0  0  0  0  0  0  0  0  0  0
   -5.8444   -4.2231   -0.1668 C   0  0  0  0  0  0  0  0  0  0  0  0
    0.0432    4.1173    0.2940 C   0  0  0  0  0  0  0  0  0  0  0  0
   -1.2780    4.6170    0.8971 C   0  0  0  0  0  0  0  0  0  0  0  0
    1.1952    4.7756    1.0570 C   0  0  0  0  0  0  0  0  0  0  0  0
    0.1362    4.5396   -1.1793 C   0  0  0  0  0  0  0  0  0  0  0  0
    4.8806   -4.4124    1.8933 C   0  0  0  0  0  0  0  0  0  0  0  0
    6.0271   -3.4990    2.3333 C   0  0  0  0  0  0  0  0  0  0  0  0
    5.2981   -5.1277    0.6005 C   0  0  0  0  0  0  0  0  0  0  0  0
    4.6302   -5.4459    3.0010 C   0  0  0  0  0  0  0  0  0  0  0  0
    5.5446   -5.9965    3.2112 H   0  0  0  0  0  0  0  0  0  0  0  0
    3.8621   -6.1577    2.7121 H   0  0  0  0  0  0  0  0  0  0  0  0
    4.3094   -4.9482    3.9139 H   0  0  0  0  0  0  0  0  0  0  0  0
    6.9222   -4.0953    2.4987 H   0  0  0  0  0  0  0  0  0  0  0  0
    5.7865   -2.9887    3.2628 H   0  0  0  0  0  0  0  0  0  0  0  0
    6.2527   -2.7586    1.5696 H   0  0  0  0  0  0  0  0  0  0  0  0
    6.2231   -5.6774    0.7608 H   0  0  0  0  0  0  0  0  0  0  0  0
    5.4606   -4.4031   -0.1947 H   0  0  0  0  0  0  0  0  0  0  0  0
    4.5369   -5.8296    0.2720 H   0  0  0  0  0  0  0  0  0  0  0  0
   -6.7687   -4.7939   -0.2228 H   0  0  0  0  0  0  0  0  0  0  0  0
   -5.3734   -4.2313   -1.1474 H   0  0  0  0  0  0  0  0  0  0  0  0
   -6.0950   -3.1957    0.0835 H   0  0  0  0  0  0  0  0  0  0  0  0
   -6.4659   -5.4459    2.2487 H   0  0  0  0  0  0  0  0  0  0  0  0
   -5.8625   -3.8196    2.5491 H   0  0  0  0  0  0  0  0  0  0  0  0
   -4.8896   -5.2157    3.0102 H   0  0  0  0  0  0  0  0  0  0  0  0
   -5.6020   -6.8338    0.4330 H   0  0  0  0  0  0  0  0  0  0  0  0
   -4.0290   -6.8028    1.2220 H   0  0  0  0  0  0  0  0  0  0  0  0
   -4.1746   -6.3700   -0.4883 H   0  0  0  0  0  0  0  0  0  0  0  0
   -3.5273    0.9892    2.4957 H   0  0  0  0  0  0  0  0  0  0  0  0
   -4.2043   -0.5662    3.0366 H   0  0  0  0  0  0  0  0  0  0  0  0
   -4.5173    0.0188    1.3771 H   0  0  0  0  0  0  0  0  0  0  0  0
   -3.3660   -0.4879   -2.1146 H   0  0  0  0  0  0  0  0  0  0  0  0
   -2.2824    0.8802   -2.4683 H   0  0  0  0  0  0  0  0  0  0  0  0
   -3.4711    0.9986   -1.1390 H   0  0  0  0  0  0  0  0  0  0  0  0
    0.1419    5.6247   -1.2562 H   0  0  0  0  0  0  0  0  0  0  0  0
   -0.7041    4.1635   -1.7570 H   0  0  0  0  0  0  0  0  0  0  0  0
    1.0536    4.1573   -1.6215 H   0  0  0  0  0  0  0  0  0  0  0  0
    1.1768    4.4948    2.1071 H   0  0  0  0  0  0  0  0  0  0  0  0
    1.1016    5.8579    0.9939 H   0  0  0  0  0  0  0  0  0  0  0  0
    2.1559    4.4963    0.6324 H   0  0  0  0  0  0  0  0  0  0  0  0
   -1.3149    5.7037    0.8660 H   0  0  0  0  0  0  0  0  0  0  0  0
   -1.3594    4.2985    1.9342 H   0  0  0  0  0  0  0  0  0  0  0  0
   -2.1371    4.2337    0.3530 H   0  0  0  0  0  0  0  0  0  0  0  0
    2.4717   -5.4070    1.0779 H   0  0  0  0  0  0  0  0  0  0  0  0
    4.3145   -1.6695    2.1253 H   0  0  0  0  0  0  0  0  0  0  0  0
    1.9525    2.4084    1.4518 H   0  0  0  0  0  0  0  0  0  0  0  0
   -1.6754    2.3671   -0.8021 H   0  0  0  0  0  0  0  0  0  0  0  0
   -4.6361   -2.2536    1.5253 H   0  0  0  0  0  0  0  0  0  0  0  0
   -2.2317   -5.6301    0.4942 H   0  0  0  0  0  0  0  0  0  0  0  0
  1  2  4  0  0  0  0
  2  3  4  0  0  0  0
  3  4  4  0  0  0  0
  4  5  4  0  0  0  0
  1  6  4  0  0  0  0
  5  6  4  0  0  0  0
  3  7  4  0  0  0  0
  7  8  4  0  0  0  0
  8  9  4  0  0  0  0
  4 10  1  0  0  0  0
  9 10  1  0  0  0  0
  7 11  1  0  0  0  0
 11 12  4  0  0  0  0
 12 13  1  0  0  0  0
  8 14  4  0  0  0  0
 13 14  1  0  0  0  0
 14 15  4  0  0  0  0
 15 16  4  0  0  0  0
  9 17  4  0  0  0  0
 16 17  4  0  0  0  0
 11 18  4  0  0  0  0
 18 19  4  0  0  0  0
 19 20  4  0  0  0  0
 12 21  4  0  0  0  0
 20 21  4  0  0  0  0
 18 22  1  0  0  0  0
  2 23  1  0  0  0  0
 10 24  2  0  0  0  0
 13 25  2  0  0  0  0
 22 26  1  0  0  0  0
 23 27  1  0  0  0  0
 20 28  1  0  0  0  0
 28 29  1  0  0  0  0
 28 30  1  0  0  0  0
 28 31  1  0  0  0  0
  6 32  1  0  0  0  0
 32 33  1  0  0  0  0
 32 34  1  0  0  0  0
 32 35  1  0  0  0  0
 16 36  1  0  0  0  0
 36 37  1  0  0  0  0
 36 38  1  0  0  0  0
 36 39  1  0  0  0  0
 39 40  1  0  0  0  0
 39 41  1  0  0  0  0
 39 42  1  0  0  0  0
 37 43  1  0  0  0  0
 37 44  1  0  0  0  0
 37 45  1  0  0  0  0
 38 46  1  0  0  0  0
 38 47  1  0  0  0  0
 38 48  1  0  0  0  0
 31 49  1  0  0  0  0
 31 50  1  0  0  0  0
 31 51  1  0  0  0  0
 30 52  1  0  0  0  0
 30 53  1  0  0  0  0
 30 54  1  0  0  0  0
 29 55  1  0  0  0  0
 29 56  1  0  0  0  0
 29 57  1  0  0  0  0
 26 58  1  0  0  0  0
 26 59  1  0  0  0  0
 26 60  1  0  0  0  0
 27 61  1  0  0  0  0
 27 62  1  0  0  0  0
 27 63  1  0  0  0  0
 35 64  1  0  0  0  0
 35 65  1  0  0  0  0
 35 66  1  0  0  0  0
 34 67  1  0  0  0  0
 34 68  1  0  0  0  0
 34 69  1  0  0  0  0
 33 70  1  0  0  0  0
 33 71  1  0  0  0  0
 33 72  1  0  0  0  0
 15 73  1  0  0  0  0
 17 74  1  0  0  0  0
  5 75  1  0  0  0  0
  1 76  1  0  0  0  0
 19 77  1  0  0  0  0
 21 78  1  0  0  0  0
M  CHG  1   1   0
M  END
