 energy: -30.665951468167 gnorm: 0.000422229676 xtb: 6.7.1 (edcfbbe)
          12022412253D

156164  0     0  0            999 V2000
   -2.0120    2.3470   -0.0574 C   0  0  0  0  0  0  0  0  0  0  0  0
   -2.1624    0.9805    0.1546 C   0  0  0  0  0  0  0  0  0  0  0  0
   -1.2140    0.3110    0.9956 C   0  0  0  0  0  0  0  0  0  0  0  0
   -0.0273    1.0027    1.3342 C   0  0  0  0  0  0  0  0  0  0  0  0
    0.0867    2.3640    1.0553 C   0  0  0  0  0  0  0  0  0  0  0  0
   -0.9152    3.0661    0.4149 C   0  0  0  0  0  0  0  0  0  0  0  0
   -1.3923   -1.0551    1.4423 C   0  0  0  0  0  0  0  0  0  0  0  0
   -0.2410   -1.8005    1.8263 C   0  0  0  0  0  0  0  0  0  0  0  0
    0.9886   -1.1451    2.0944 C   0  0  0  0  0  0  0  0  0  0  0  0
    1.0963    0.3034    1.9540 C   0  0  0  0  0  0  0  0  0  0  0  0
   -2.6837   -1.7038    1.5594 C   0  0  0  0  0  0  0  0  0  0  0  0
   -2.7600   -3.1164    1.5034 C   0  0  0  0  0  0  0  0  0  0  0  0
   -1.5536   -3.9225    1.6893 C   0  0  0  0  0  0  0  0  0  0  0  0
   -0.3103   -3.2102    1.9798 C   0  0  0  0  0  0  0  0  0  0  0  0
    0.8153   -3.9057    2.3990 C   0  0  0  0  0  0  0  0  0  0  0  0
    2.0148   -3.2657    2.6934 C   0  0  0  0  0  0  0  0  0  0  0  0
    2.0774   -1.8878    2.5242 C   0  0  0  0  0  0  0  0  0  0  0  0
   -3.8879   -0.9854    1.8647 C   0  0  0  0  0  0  0  0  0  0  0  0
   -5.1032   -1.6442    1.7035 C   0  0  0  0  0  0  0  0  0  0  0  0
   -5.1870   -3.0087    1.4223 C   0  0  0  0  0  0  0  0  0  0  0  0
   -4.0079   -3.7318    1.3748 C   0  0  0  0  0  0  0  0  0  0  0  0
   -3.7711    0.3076    2.3964 O   0  0  0  0  0  0  0  0  0  0  0  0
   -3.1585    0.2259   -0.4809 O   0  0  0  0  0  0  0  0  0  0  0  0
    2.1009    0.9119    2.3226 O   0  0  0  0  0  0  0  0  0  0  0  0
   -1.6005   -5.1524    1.6708 O   0  0  0  0  0  0  0  0  0  0  0  0
   -4.9921    0.9158    2.7539 C   0  0  0  0  0  0  0  0  0  0  0  0
   -4.1784    0.9770   -1.1014 C   0  0  0  0  0  0  0  0  0  0  0  0
   -6.5613   -3.6548    1.1649 C   0  0  0  0  0  0  0  0  0  0  0  0
   -6.4785   -5.1953    1.1681 C   0  0  0  0  0  0  0  0  0  0  0  0
   -7.5769   -3.2288    2.2468 C   0  0  0  0  0  0  0  0  0  0  0  0
   -7.0680   -3.1924   -0.2137 C   0  0  0  0  0  0  0  0  0  0  0  0
   -0.8246    4.5799    0.1554 C   0  0  0  0  0  0  0  0  0  0  0  0
   -2.1079    5.2671    0.6646 C   0  0  0  0  0  0  0  0  0  0  0  0
    0.3764    5.2152    0.8863 C   0  0  0  0  0  0  0  0  0  0  0  0
   -0.6692    4.8292   -1.3561 C   0  0  0  0  0  0  0  0  0  0  0  0
    3.2679   -4.0458    3.1249 C   0  0  0  0  0  0  0  0  0  0  0  0
    4.0180   -3.2764    4.2310 C   0  0  0  0  0  0  0  0  0  0  0  0
    4.1942   -4.2210    1.9093 C   0  0  0  0  0  0  0  0  0  0  0  0
    2.8996   -5.4368    3.6786 C   0  0  0  0  0  0  0  0  0  0  0  0
    3.7793   -5.9420    4.0827 H   0  0  0  0  0  0  0  0  0  0  0  0
    2.4854   -6.0794    2.9004 H   0  0  0  0  0  0  0  0  0  0  0  0
    2.1653   -5.3535    4.4802 H   0  0  0  0  0  0  0  0  0  0  0  0
    4.8309   -3.8754    4.6464 H   0  0  0  0  0  0  0  0  0  0  0  0
    3.3385   -3.0202    5.0431 H   0  0  0  0  0  0  0  0  0  0  0  0
    4.4551   -2.3504    3.8556 H   0  0  0  0  0  0  0  0  0  0  0  0
    5.0997   -4.7683    2.1804 H   0  0  0  0  0  0  0  0  0  0  0  0
    4.4940   -3.2524    1.5048 H   0  0  0  0  0  0  0  0  0  0  0  0
    3.6899   -4.7734    1.1141 H   0  0  0  0  0  0  0  0  0  0  0  0
   -8.0419   -3.6303   -0.4442 H   0  0  0  0  0  0  0  0  0  0  0  0
   -6.3704   -3.4861   -1.0004 H   0  0  0  0  0  0  0  0  0  0  0  0
   -7.1704   -2.1062   -0.2486 H   0  0  0  0  0  0  0  0  0  0  0  0
   -8.5355   -3.7319    2.0999 H   0  0  0  0  0  0  0  0  0  0  0  0
   -7.7689   -2.1552    2.2201 H   0  0  0  0  0  0  0  0  0  0  0  0
   -7.2200   -3.4808    3.2467 H   0  0  0  0  0  0  0  0  0  0  0  0
   -7.4654   -5.6384    1.0158 H   0  0  0  0  0  0  0  0  0  0  0  0
   -6.0929   -5.5689    2.1186 H   0  0  0  0  0  0  0  0  0  0  0  0
   -5.8331   -5.5591    0.3666 H   0  0  0  0  0  0  0  0  0  0  0  0
   -4.7878    1.8978    3.1806 H   0  0  0  0  0  0  0  0  0  0  0  0
   -5.5113    0.3139    3.5003 H   0  0  0  0  0  0  0  0  0  0  0  0
   -5.6191    1.0456    1.8722 H   0  0  0  0  0  0  0  0  0  0  0  0
   -4.9651    0.2982   -1.4305 H   0  0  0  0  0  0  0  0  0  0  0  0
   -3.7861    1.5035   -1.9715 H   0  0  0  0  0  0  0  0  0  0  0  0
   -4.6063    1.6849   -0.3920 H   0  0  0  0  0  0  0  0  0  0  0  0
   -0.5911    5.8971   -1.5728 H   0  0  0  0  0  0  0  0  0  0  0  0
   -1.5234    4.4378   -1.9115 H   0  0  0  0  0  0  0  0  0  0  0  0
    0.2296    4.3413   -1.7382 H   0  0  0  0  0  0  0  0  0  0  0  0
    0.3159    5.0426    1.9627 H   0  0  0  0  0  0  0  0  0  0  0  0
    0.4024    6.2956    0.7267 H   0  0  0  0  0  0  0  0  0  0  0  0
    1.3228    4.8102    0.5232 H   0  0  0  0  0  0  0  0  0  0  0  0
   -2.0562    6.3493    0.5245 H   0  0  0  0  0  0  0  0  0  0  0  0
   -2.2533    5.0726    1.7291 H   0  0  0  0  0  0  0  0  0  0  0  0
   -2.9921    4.9086    0.1353 H   0  0  0  0  0  0  0  0  0  0  0  0
    0.7324   -4.9726    2.4973 H   0  0  0  0  0  0  0  0  0  0  0  0
    2.9942   -1.3622    2.7207 H   0  0  0  0  0  0  0  0  0  0  0  0
    0.9971    2.8582    1.3397 H   0  0  0  0  0  0  0  0  0  0  0  0
   -2.7445    2.8674   -0.6447 H   0  0  0  0  0  0  0  0  0  0  0  0
   -6.0137   -1.0865    1.8125 H   0  0  0  0  0  0  0  0  0  0  0  0
   -4.0285   -4.7990    1.2491 H   0  0  0  0  0  0  0  0  0  0  0  0
    0.7226    1.1273    5.4350 C   0  0  0  0  0  0  0  0  0  0  0  0
    0.4651   -0.2237    5.6901 C   0  0  0  0  0  0  0  0  0  0  0  0
    1.3510   -0.9401    6.5664 C   0  0  0  0  0  0  0  0  0  0  0  0
    2.5296   -0.2781    6.9890 C   0  0  0  0  0  0  0  0  0  0  0  0
    2.7408    1.0537    6.6779 C   0  0  0  0  0  0  0  0  0  0  0  0
    1.8451    1.7784    5.9058 C   0  0  0  0  0  0  0  0  0  0  0  0
    1.1635   -2.3278    6.9168 C   0  0  0  0  0  0  0  0  0  0  0  0
    2.3181   -3.1010    7.2818 C   0  0  0  0  0  0  0  0  0  0  0  0
    3.5182   -2.4661    7.6672 C   0  0  0  0  0  0  0  0  0  0  0  0
    3.5927   -1.0064    7.6871 C   0  0  0  0  0  0  0  0  0  0  0  0
   -0.0939   -3.0231    6.7996 C   0  0  0  0  0  0  0  0  0  0  0  0
   -0.0984   -4.4175    6.5384 C   0  0  0  0  0  0  0  0  0  0  0  0
    1.0996   -5.2207    6.7809 C   0  0  0  0  0  0  0  0  0  0  0  0
    2.3000   -4.5130    7.2215 C   0  0  0  0  0  0  0  0  0  0  0  0
    3.4432   -5.2294    7.5275 C   0  0  0  0  0  0  0  0  0  0  0  0
    4.6223   -4.6092    7.9136 C   0  0  0  0  0  0  0  0  0  0  0  0
    4.6331   -3.2230    7.9846 C   0  0  0  0  0  0  0  0  0  0  0  0
   -1.3682   -2.3797    6.9775 C   0  0  0  0  0  0  0  0  0  0  0  0
   -2.4996   -3.0308    6.4717 C   0  0  0  0  0  0  0  0  0  0  0  0
   -2.4413   -4.3105    5.9442 C   0  0  0  0  0  0  0  0  0  0  0  0
   -1.2549   -5.0224    6.0798 C   0  0  0  0  0  0  0  0  0  0  0  0
   -1.4110   -1.1798    7.6668 O   0  0  0  0  0  0  0  0  0  0  0  0
   -0.5758   -0.8878    5.0690 O   0  0  0  0  0  0  0  0  0  0  0  0
    4.5260   -0.4231    8.2203 O   0  0  0  0  0  0  0  0  0  0  0  0
    1.0873   -6.4369    6.6588 O   0  0  0  0  0  0  0  0  0  0  0  0
   -2.6912   -0.6026    7.7687 C   0  0  0  0  0  0  0  0  0  0  0  0
   -1.4958   -0.0741    4.3802 C   0  0  0  0  0  0  0  0  0  0  0  0
   -3.6681   -4.9478    5.2820 C   0  0  0  0  0  0  0  0  0  0  0  0
   -3.2309   -5.9245    4.1703 C   0  0  0  0  0  0  0  0  0  0  0  0
   -4.4822   -5.7047    6.3415 C   0  0  0  0  0  0  0  0  0  0  0  0
   -4.5487   -3.8616    4.6339 C   0  0  0  0  0  0  0  0  0  0  0  0
    2.0948    3.2384    5.5026 C   0  0  0  0  0  0  0  0  0  0  0  0
    1.0255    4.1330    6.1519 C   0  0  0  0  0  0  0  0  0  0  0  0
    3.4871    3.7209    5.9502 C   0  0  0  0  0  0  0  0  0  0  0  0
    2.0090    3.3598    3.9688 C   0  0  0  0  0  0  0  0  0  0  0  0
    5.8714   -5.4590    8.1841 C   0  0  0  0  0  0  0  0  0  0  0  0
    7.0564   -4.5954    8.6562 C   0  0  0  0  0  0  0  0  0  0  0  0
    6.2754   -6.1776    6.8842 C   0  0  0  0  0  0  0  0  0  0  0  0
    5.5602   -6.4969    9.2779 C   0  0  0  0  0  0  0  0  0  0  0  0
    6.4396   -7.0991    9.5059 H   0  0  0  0  0  0  0  0  0  0  0  0
    4.7655   -7.1740    8.9681 H   0  0  0  0  0  0  0  0  0  0  0  0
    5.2413   -6.0041   10.1960 H   0  0  0  0  0  0  0  0  0  0  0  0
    7.9287   -5.2152    8.8635 H   0  0  0  0  0  0  0  0  0  0  0  0
    6.8081   -4.0565    9.5702 H   0  0  0  0  0  0  0  0  0  0  0  0
    7.3417   -3.8708    7.8942 H   0  0  0  0  0  0  0  0  0  0  0  0
    7.1663   -6.7870    7.0338 H   0  0  0  0  0  0  0  0  0  0  0  0
    6.4872   -5.4553    6.0966 H   0  0  0  0  0  0  0  0  0  0  0  0
    5.4780   -6.8298    6.5305 H   0  0  0  0  0  0  0  0  0  0  0  0
   -5.3357   -4.3151    4.0355 H   0  0  0  0  0  0  0  0  0  0  0  0
   -3.9548   -3.2250    3.9792 H   0  0  0  0  0  0  0  0  0  0  0  0
   -5.0293   -3.2302    5.3792 H   0  0  0  0  0  0  0  0  0  0  0  0
   -5.3623   -6.1697    5.8980 H   0  0  0  0  0  0  0  0  0  0  0  0
   -4.8162   -5.0288    7.1283 H   0  0  0  0  0  0  0  0  0  0  0  0
   -3.8817   -6.4869    6.8047 H   0  0  0  0  0  0  0  0  0  0  0  0
   -4.0911   -6.2877    3.6100 H   0  0  0  0  0  0  0  0  0  0  0  0
   -2.7176   -6.7936    4.5773 H   0  0  0  0  0  0  0  0  0  0  0  0
   -2.5586   -5.4351    3.4666 H   0  0  0  0  0  0  0  0  0  0  0  0
   -2.6054    0.3466    8.2984 H   0  0  0  0  0  0  0  0  0  0  0  0
   -3.3555   -1.2617    8.3288 H   0  0  0  0  0  0  0  0  0  0  0  0
   -3.0946   -0.4129    6.7737 H   0  0  0  0  0  0  0  0  0  0  0  0
   -2.3050   -0.7055    4.0106 H   0  0  0  0  0  0  0  0  0  0  0  0
   -1.0065    0.3956    3.5286 H   0  0  0  0  0  0  0  0  0  0  0  0
   -1.9089    0.6815    5.0484 H   0  0  0  0  0  0  0  0  0  0  0  0
    2.3046    4.3528    3.6328 H   0  0  0  0  0  0  0  0  0  0  0  0
    0.9954    3.1790    3.6168 H   0  0  0  0  0  0  0  0  0  0  0  0
    2.6535    2.6251    3.4857 H   0  0  0  0  0  0  0  0  0  0  0  0
    3.5848    3.6886    7.0348 H   0  0  0  0  0  0  0  0  0  0  0  0
    3.6602    4.7496    5.6350 H   0  0  0  0  0  0  0  0  0  0  0  0
    4.2713    3.1037    5.5128 H   0  0  0  0  0  0  0  0  0  0  0  0
    1.1731    5.1778    5.8798 H   0  0  0  0  0  0  0  0  0  0  0  0
    1.0666    4.0561    7.2380 H   0  0  0  0  0  0  0  0  0  0  0  0
    0.0254    3.8418    5.8335 H   0  0  0  0  0  0  0  0  0  0  0  0
    3.4030   -6.2991    7.4348 H   0  0  0  0  0  0  0  0  0  0  0  0
    5.5267   -2.6964    8.2622 H   0  0  0  0  0  0  0  0  0  0  0  0
    3.6526    1.5035    7.0236 H   0  0  0  0  0  0  0  0  0  0  0  0
    0.0536    1.6705    4.7973 H   0  0  0  0  0  0  0  0  0  0  0  0
   -3.4423   -2.5210    6.4928 H   0  0  0  0  0  0  0  0  0  0  0  0
   -1.2054   -6.0625    5.8158 H   0  0  0  0  0  0  0  0  0  0  0  0
  1  2  2  0  0  0  0
  1  6  1  0  0  0  0
  1 76  1  0  0  0  0
  2  3  1  0  0  0  0
  2 23  1  0  0  0  0
  3  4  2  0  0  0  0
  3  7  1  0  0  0  0
  4  5  1  0  0  0  0
  4 10  1  0  0  0  0
  5  6  2  0  0  0  0
  5 75  1  0  0  0  0
  6 32  1  0  0  0  0
  7  8  2  0  0  0  0
  7 11  1  0  0  0  0
  8 14  1  0  0  0  0
  9  8  1  0  0  0  0
  9 10  1  0  0  0  0
  9 17  1  0  0  0  0
 10 24  2  0  0  0  0
 11 12  2  0  0  0  0
 11 18  1  0  0  0  0
 12 13  1  0  0  0  0
 12 21  1  0  0  0  0
 13 14  1  0  0  0  0
 13 25  2  0  0  0  0
 14 15  2  0  0  0  0
 15 16  1  0  0  0  0
 15 73  1  0  0  0  0
 16 17  2  0  0  0  0
 16 36  1  0  0  0  0
 17 74  1  0  0  0  0
 18 19  2  0  0  0  0
 18 22  1  0  0  0  0
 19 20  1  0  0  0  0
 19 77  1  0  0  0  0
 20 21  2  0  0  0  0
 20 28  1  0  0  0  0
 21 78  1  0  0  0  0
 22 26  1  0  0  0  0
 23 27  1  0  0  0  0
 26 58  1  0  0  0  0
 26 59  1  0  0  0  0
 26 60  1  0  0  0  0
 27 61  1  0  0  0  0
 27 62  1  0  0  0  0
 27 63  1  0  0  0  0
 28 29  1  0  0  0  0
 28 30  1  0  0  0  0
 28 31  1  0  0  0  0
 29 55  1  0  0  0  0
 29 56  1  0  0  0  0
 29 57  1  0  0  0  0
 30 52  1  0  0  0  0
 30 53  1  0  0  0  0
 30 54  1  0  0  0  0
 31 49  1  0  0  0  0
 31 50  1  0  0  0  0
 31 51  1  0  0  0  0
 32 33  1  0  0  0  0
 32 34  1  0  0  0  0
 32 35  1  0  0  0  0
 33 70  1  0  0  0  0
 33 71  1  0  0  0  0
 33 72  1  0  0  0  0
 34 67  1  0  0  0  0
 34 68  1  0  0  0  0
 34 69  1  0  0  0  0
 35 64  1  0  0  0  0
 35 65  1  0  0  0  0
 35 66  1  0  0  0  0
 36 37  1  0  0  0  0
 36 38  1  0  0  0  0
 36 39  1  0  0  0  0
 37 43  1  0  0  0  0
 37 44  1  0  0  0  0
 37 45  1  0  0  0  0
 38 46  1  0  0  0  0
 38 47  1  0  0  0  0
 38 48  1  0  0  0  0
 39 40  1  0  0  0  0
 39 41  1  0  0  0  0
 39 42  1  0  0  0  0
 79 80  2  0  0  0  0
 79 84  1  0  0  0  0
 79154  1  0  0  0  0
 80 81  1  0  0  0  0
 80101  1  0  0  0  0
 81 82  2  0  0  0  0
 81 85  1  0  0  0  0
 82 83  1  0  0  0  0
 82 88  1  0  0  0  0
 83 84  2  0  0  0  0
 83153  1  0  0  0  0
 84110  1  0  0  0  0
 85 86  2  0  0  0  0
 85 89  1  0  0  0  0
 86 92  1  0  0  0  0
 87 86  1  0  0  0  0
 87 88  1  0  0  0  0
 87 95  1  0  0  0  0
 88102  2  0  0  0  0
 89 90  2  0  0  0  0
 89 96  1  0  0  0  0
 90 91  1  0  0  0  0
 90 99  1  0  0  0  0
 91 92  1  0  0  0  0
 91103  2  0  0  0  0
 92 93  2  0  0  0  0
 93 94  1  0  0  0  0
 93151  1  0  0  0  0
 94 95  2  0  0  0  0
 94114  1  0  0  0  0
 95152  1  0  0  0  0
 96 97  2  0  0  0  0
 96100  1  0  0  0  0
 97 98  1  0  0  0  0
 97155  1  0  0  0  0
 98 99  2  0  0  0  0
 98106  1  0  0  0  0
 99156  1  0  0  0  0
100104  1  0  0  0  0
101105  1  0  0  0  0
104136  1  0  0  0  0
104137  1  0  0  0  0
104138  1  0  0  0  0
105139  1  0  0  0  0
105140  1  0  0  0  0
105141  1  0  0  0  0
106107  1  0  0  0  0
106108  1  0  0  0  0
106109  1  0  0  0  0
107133  1  0  0  0  0
107134  1  0  0  0  0
107135  1  0  0  0  0
108130  1  0  0  0  0
108131  1  0  0  0  0
108132  1  0  0  0  0
109127  1  0  0  0  0
109128  1  0  0  0  0
109129  1  0  0  0  0
110111  1  0  0  0  0
110112  1  0  0  0  0
110113  1  0  0  0  0
111148  1  0  0  0  0
111149  1  0  0  0  0
111150  1  0  0  0  0
112145  1  0  0  0  0
112146  1  0  0  0  0
112147  1  0  0  0  0
113142  1  0  0  0  0
113143  1  0  0  0  0
113144  1  0  0  0  0
114115  1  0  0  0  0
114116  1  0  0  0  0
114117  1  0  0  0  0
115121  1  0  0  0  0
115122  1  0  0  0  0
115123  1  0  0  0  0
116124  1  0  0  0  0
116125  1  0  0  0  0
116126  1  0  0  0  0
117118  1  0  0  0  0
117119  1  0  0  0  0
117120  1  0  0  0  0
M  CHG  1   7  -1
M  CHG  1  85  -1
M  END
