 energy: -111.516633269506 gnorm: 0.000284783061 xtb: 6.6.1 (8d0f1dd)
          11122408583D

 78 82  0     0  0            999 V2000
   -0.9672    1.8466   -0.1139 C   0  0  0  0  0  0  0  0  0  0  0  0
   -1.0146    0.4761    0.0128 C   0  0  0  0  0  0  0  0  0  0  0  0
   -0.0450   -0.2351    0.7606 C   0  0  0  0  0  0  0  0  0  0  0  0
    1.1023    0.5099    1.1598 C   0  0  0  0  0  0  0  0  0  0  0  0
    1.1150    1.9089    1.0295 C   0  0  0  0  0  0  0  0  0  0  0  0
    0.0853    2.6013    0.4474 C   0  0  0  0  0  0  0  0  0  0  0  0
   -0.0970   -1.6385    1.0059 C   0  0  0  0  0  0  0  0  0  0  0  0
    1.1341   -2.3060    1.2184 C   0  0  0  0  0  0  0  0  0  0  0  0
    2.3142   -1.5837    1.5293 C   0  0  0  0  0  0  0  0  0  0  0  0
    2.2962   -0.1419    1.6493 C   0  0  0  0  0  0  0  0  0  0  0  0
   -1.2843   -2.4275    1.0487 C   0  0  0  0  0  0  0  0  0  0  0  0
   -1.2053   -3.8372    0.8536 C   0  0  0  0  0  0  0  0  0  0  0  0
    0.0651   -4.5224    0.7940 C   0  0  0  0  0  0  0  0  0  0  0  0
    1.2233   -3.7191    1.1243 C   0  0  0  0  0  0  0  0  0  0  0  0
    2.4553   -4.3517    1.3342 C   0  0  0  0  0  0  0  0  0  0  0  0
    3.6111   -3.6474    1.6476 C   0  0  0  0  0  0  0  0  0  0  0  0
    3.5213   -2.2687    1.7434 C   0  0  0  0  0  0  0  0  0  0  0  0
   -2.5578   -1.9218    1.4011 C   0  0  0  0  0  0  0  0  0  0  0  0
   -3.6921   -2.6984    1.3195 C   0  0  0  0  0  0  0  0  0  0  0  0
   -3.6269   -4.0563    0.9393 C   0  0  0  0  0  0  0  0  0  0  0  0
   -2.3814   -4.6009    0.7616 C   0  0  0  0  0  0  0  0  0  0  0  0
   -2.5854   -0.6369    1.9335 O   0  0  0  0  0  0  0  0  0  0  0  0
   -1.9651   -0.2915   -0.6559 O   0  0  0  0  0  0  0  0  0  0  0  0
    3.2843    0.5145    2.0901 O   0  0  0  0  0  0  0  0  0  0  0  0
    0.1508   -5.7580    0.5333 O   0  0  0  0  0  0  0  0  0  0  0  0
   -3.8045    0.0159    2.0390 C   0  0  0  0  0  0  0  0  0  0  0  0
   -2.8045    0.3299   -1.5675 C   0  0  0  0  0  0  0  0  0  0  0  0
   -4.9246   -4.8431    0.8031 C   0  0  0  0  0  0  0  0  0  0  0  0
   -4.6849   -6.2876    0.3553 C   0  0  0  0  0  0  0  0  0  0  0  0
   -5.6573   -4.8818    2.1534 C   0  0  0  0  0  0  0  0  0  0  0  0
   -5.8236   -4.1675   -0.2440 C   0  0  0  0  0  0  0  0  0  0  0  0
    0.0438    4.1196    0.3286 C   0  0  0  0  0  0  0  0  0  0  0  0
   -1.2442    4.6488    0.9785 C   0  0  0  0  0  0  0  0  0  0  0  0
    1.2308    4.7893    1.0264 C   0  0  0  0  0  0  0  0  0  0  0  0
    0.0721    4.5290   -1.1525 C   0  0  0  0  0  0  0  0  0  0  0  0
    4.9104   -4.4153    1.8737 C   0  0  0  0  0  0  0  0  0  0  0  0
    6.0941   -3.4999    2.2007 C   0  0  0  0  0  0  0  0  0  0  0  0
    5.2589   -5.2090    0.6063 C   0  0  0  0  0  0  0  0  0  0  0  0
    4.7225   -5.3882    3.0468 C   0  0  0  0  0  0  0  0  0  0  0  0
    5.6318   -5.9677    3.2256 H   0  0  0  0  0  0  0  0  0  0  0  0
    3.9062   -6.0756    2.8435 H   0  0  0  0  0  0  0  0  0  0  0  0
    4.4794   -4.8335    3.9513 H   0  0  0  0  0  0  0  0  0  0  0  0
    6.9978   -4.0953    2.3539 H   0  0  0  0  0  0  0  0  0  0  0  0
    5.9003   -2.9302    3.1062 H   0  0  0  0  0  0  0  0  0  0  0  0
    6.2762   -2.8023    1.3867 H   0  0  0  0  0  0  0  0  0  0  0  0
    6.1740   -5.7898    0.7470 H   0  0  0  0  0  0  0  0  0  0  0  0
    5.4048   -4.5265   -0.2291 H   0  0  0  0  0  0  0  0  0  0  0  0
    4.4516   -5.8885    0.3484 H   0  0  0  0  0  0  0  0  0  0  0  0
   -6.7687   -4.7047   -0.3530 H   0  0  0  0  0  0  0  0  0  0  0  0
   -5.3178   -4.1522   -1.2073 H   0  0  0  0  0  0  0  0  0  0  0  0
   -6.0422   -3.1406    0.0373 H   0  0  0  0  0  0  0  0  0  0  0  0
   -6.5790   -5.4637    2.0805 H   0  0  0  0  0  0  0  0  0  0  0  0
   -5.9114   -3.8789    2.4872 H   0  0  0  0  0  0  0  0  0  0  0  0
   -5.0165   -5.3359    2.9064 H   0  0  0  0  0  0  0  0  0  0  0  0
   -5.6387   -6.8064    0.2337 H   0  0  0  0  0  0  0  0  0  0  0  0
   -4.0933   -6.8241    1.0924 H   0  0  0  0  0  0  0  0  0  0  0  0
   -4.1553   -6.3095   -0.5935 H   0  0  0  0  0  0  0  0  0  0  0  0
   -3.5725    1.0574    2.2752 H   0  0  0  0  0  0  0  0  0  0  0  0
   -4.4353   -0.3946    2.8459 H   0  0  0  0  0  0  0  0  0  0  0  0
   -4.3780   -0.0184    1.1025 H   0  0  0  0  0  0  0  0  0  0  0  0
   -3.3930   -0.4682   -2.0263 H   0  0  0  0  0  0  0  0  0  0  0  0
   -2.2469    0.8604   -2.3554 H   0  0  0  0  0  0  0  0  0  0  0  0
   -3.4951    1.0459   -1.0938 H   0  0  0  0  0  0  0  0  0  0  0  0
    0.0583    5.6162   -1.2572 H   0  0  0  0  0  0  0  0  0  0  0  0
   -0.7846    4.1229   -1.6847 H   0  0  0  0  0  0  0  0  0  0  0  0
    0.9749    4.1447   -1.6228 H   0  0  0  0  0  0  0  0  0  0  0  0
    1.2591    4.5133    2.0773 H   0  0  0  0  0  0  0  0  0  0  0  0
    1.1454    5.8760    0.9538 H   0  0  0  0  0  0  0  0  0  0  0  0
    2.1672    4.4866    0.5655 H   0  0  0  0  0  0  0  0  0  0  0  0
   -1.2945    5.7383    0.9153 H   0  0  0  0  0  0  0  0  0  0  0  0
   -1.2722    4.3582    2.0266 H   0  0  0  0  0  0  0  0  0  0  0  0
   -2.1239    4.2361    0.4914 H   0  0  0  0  0  0  0  0  0  0  0  0
    2.4566   -5.4299    1.2411 H   0  0  0  0  0  0  0  0  0  0  0  0
    4.3726   -1.6499    1.9848 H   0  0  0  0  0  0  0  0  0  0  0  0
    2.0008    2.3965    1.4082 H   0  0  0  0  0  0  0  0  0  0  0  0
   -1.7379    2.3627   -0.6713 H   0  0  0  0  0  0  0  0  0  0  0  0
   -4.6524   -2.2748    1.5837 H   0  0  0  0  0  0  0  0  0  0  0  0
   -2.2322   -5.6499    0.5533 H   0  0  0  0  0  0  0  0  0  0  0  0
  1  2  2  0  0  0  0
  1 76  1  0  0  0  0
  2  3  1  0  0  0  0
  2 23  1  0  0  0  0
  3  4  2  0  0  0  0
  3  7  1  0  0  0  0
  4  5  1  0  0  0  0
  5  6  2  0  0  0  0
  5 75  1  0  0  0  0
  6 32  1  0  0  0  0
  6  1  1  0  0  0  0
  7  8  1  0  0  0  0
  8  9  2  0  0  0  0
  9 10  1  0  0  0  0
 10  4  1  0  0  0  0
 10 24  2  0  0  0  0
 11 12  2  0  0  0  0
 11 18  1  0  0  0  0
 11  7  1  0  0  0  0
 12 13  1  0  0  0  0
 13 14  1  0  0  0  0
 13 25  2  0  0  0  0
 14  8  1  0  0  0  0
 14 15  2  0  0  0  0
 15 16  1  0  0  0  0
 15 73  1  0  0  0  0
 16 36  1  0  0  0  0
 16 17  2  0  0  0  0
 17  9  1  0  0  0  0
 17 74  1  0  0  0  0
 18 19  2  0  0  0  0
 19 20  1  0  0  0  0
 19 77  1  0  0  0  0
 20 28  1  0  0  0  0
 20 21  2  0  0  0  0
 21 12  1  0  0  0  0
 21 78  1  0  0  0  0
 22 26  1  0  0  0  0
 22 18  1  0  0  0  0
 23 27  1  0  0  0  0
 26 58  1  0  0  0  0
 26 59  1  0  0  0  0
 26 60  1  0  0  0  0
 27 61  1  0  0  0  0
 27 62  1  0  0  0  0
 27 63  1  0  0  0  0
 28 29  1  0  0  0  0
 28 30  1  0  0  0  0
 28 31  1  0  0  0  0
 29 55  1  0  0  0  0
 29 56  1  0  0  0  0
 29 57  1  0  0  0  0
 30 52  1  0  0  0  0
 30 53  1  0  0  0  0
 30 54  1  0  0  0  0
 31 49  1  0  0  0  0
 31 50  1  0  0  0  0
 31 51  1  0  0  0  0
 32 33  1  0  0  0  0
 32 34  1  0  0  0  0
 32 35  1  0  0  0  0
 33 70  1  0  0  0  0
 33 71  1  0  0  0  0
 33 72  1  0  0  0  0
 34 67  1  0  0  0  0
 34 68  1  0  0  0  0
 34 69  1  0  0  0  0
 35 64  1  0  0  0  0
 35 65  1  0  0  0  0
 35 66  1  0  0  0  0
 36 37  1  0  0  0  0
 36 38  1  0  0  0  0
 36 39  1  0  0  0  0
 37 43  1  0  0  0  0
 37 44  1  0  0  0  0
 37 45  1  0  0  0  0
 38 46  1  0  0  0  0
 38 47  1  0  0  0  0
 38 48  1  0  0  0  0
 39 40  1  0  0  0  0
 39 41  1  0  0  0  0
 39 42  1  0  0  0  0
M  CHG  1   1  -2
M  END
