
 OpenBabel11112415123D

120128  0  0  0  0  0  0  0  0999 V2000
   -2.1438    1.9869   -3.7429 C   0  0  0  0  0  0  0  0  0  0  0  0
   -1.8690    1.4215   -2.5622 C   0  0  0  0  0  0  0  0  0  0  0  0
   -1.1036    2.1820   -1.5502 C   0  0  0  0  0  0  0  0  0  0  0  0
   -0.5436    3.3728   -1.8802 C   0  0  0  0  0  0  0  0  0  0  0  0
   -0.8334    3.9767   -3.1921 C   0  0  0  0  0  0  0  0  0  0  0  0
   -1.6250    3.3370   -4.0636 C   0  0  0  0  0  0  0  0  0  0  0  0
   -0.9215    1.5861   -0.1772 C   0  5  0  0  0  0  0  0  0  0  0  0
    0.1591    2.1594    0.6510 C   0  0  0  0  0  0  0  0  0  0  0  0
    0.8320    3.3253    0.2444 C   0  0  0  0  0  0  0  0  0  0  0  0
    0.4012    4.0387   -0.9674 C   0  0  0  0  0  0  0  0  0  0  0  0
   -1.9873    0.7749    0.5579 C   0  0  0  0  0  0  0  0  0  0  0  0
   -1.5811    0.0514    1.6860 C   0  0  0  0  0  0  0  0  0  0  0  0
   -0.2270    0.2716    2.2462 C   0  0  0  0  0  0  0  0  0  0  0  0
    0.5551    1.4491    1.7827 C   0  0  0  0  0  0  0  0  0  0  0  0
    1.6739    1.8782    2.4798 C   0  0  0  0  0  0  0  0  0  0  0  0
    2.3728    3.0251    2.0706 C   0  0  0  0  0  0  0  0  0  0  0  0
    1.9370    3.7588    0.9666 C   0  0  0  0  0  0  0  0  0  0  0  0
   -3.3419    0.6949    0.1597 C   0  0  0  0  0  0  0  0  0  0  0  0
   -4.2240   -0.1709    0.7808 C   0  0  0  0  0  0  0  0  0  0  0  0
   -3.8080   -0.9149    1.8742 C   0  0  0  0  0  0  0  0  0  0  0  0
   -2.4900   -0.7874    2.3415 C   0  0  0  0  0  0  0  0  0  0  0  0
   -3.8640    1.5449   -0.7315 O   0  0  0  0  0  0  0  0  0  0  0  0
   -2.2584    0.1553   -2.2553 O   0  0  0  0  0  0  0  0  0  0  0  0
   -1.9715    3.9297   -5.3521 C   0  0  0  0  0  0  0  0  0  0  0  0
   -4.7626   -1.7569    2.5915 C   0  0  0  0  0  0  0  0  0  0  0  0
    3.5582    3.4305    2.8136 C   0  0  0  0  0  0  0  0  0  0  0  0
    0.9322    5.0949   -1.2904 O   0  0  0  0  0  0  0  0  0  0  0  0
    0.1579   -0.3874    3.1978 O   0  0  0  0  0  0  0  0  0  0  0  0
    4.1519    4.4649    2.5245 O   0  0  0  0  0  0  0  0  0  0  0  0
    4.0149    2.6166    3.7858 O   0  0  0  0  0  0  0  0  0  0  0  0
    4.9956    2.9660    4.6697 C   0  0  0  0  0  0  0  0  0  0  0  0
   -1.5435    5.0380   -5.6599 O   0  0  0  0  0  0  0  0  0  0  0  0
   -2.7848    3.2389   -6.1785 O   0  0  0  0  0  0  0  0  0  0  0  0
   -3.2241    3.6766   -7.4006 C   0  0  0  0  0  0  0  0  0  0  0  0
   -5.9228   -1.8581    2.1975 O   0  0  0  0  0  0  0  0  0  0  0  0
   -4.3581   -2.3844    3.7118 O   0  0  0  0  0  0  0  0  0  0  0  0
   -5.1828   -3.1728    4.4631 C   0  0  0  0  0  0  0  0  0  0  0  0
   -3.9004    2.8645   -0.3457 C   0  0  0  0  0  0  0  0  0  0  0  0
   -3.1232   -0.6251   -2.9774 C   0  0  0  0  0  0  0  0  0  0  0  0
    5.8660    3.3721    4.1169 H   0  0  0  0  0  0  0  0  0  0  0  0
    5.3007    2.0582    5.2237 H   0  0  0  0  0  0  0  0  0  0  0  0
    4.5928    3.7230    5.3745 H   0  0  0  0  0  0  0  0  0  0  0  0
    1.9887    1.3208    3.3480 H   0  0  0  0  0  0  0  0  0  0  0  0
    2.4820    4.6381    0.6404 H   0  0  0  0  0  0  0  0  0  0  0  0
   -2.1803   -1.3096    3.2349 H   0  0  0  0  0  0  0  0  0  0  0  0
   -5.2556   -0.2036    0.4410 H   0  0  0  0  0  0  0  0  0  0  0  0
   -3.2789   -1.5771   -2.4321 H   0  0  0  0  0  0  0  0  0  0  0  0
   -2.6975   -0.8324   -3.9791 H   0  0  0  0  0  0  0  0  0  0  0  0
   -4.0963   -0.0961   -3.0608 H   0  0  0  0  0  0  0  0  0  0  0  0
   -4.6089   -3.5544    5.3272 H   0  0  0  0  0  0  0  0  0  0  0  0
   -5.5367   -4.0213    3.8426 H   0  0  0  0  0  0  0  0  0  0  0  0
   -6.0439   -2.5665    4.8161 H   0  0  0  0  0  0  0  0  0  0  0  0
   -2.8599    2.9707   -8.1715 H   0  0  0  0  0  0  0  0  0  0  0  0
   -2.8486    4.6942   -7.6320 H   0  0  0  0  0  0  0  0  0  0  0  0
   -4.3318    3.6959   -7.3918 H   0  0  0  0  0  0  0  0  0  0  0  0
   -0.4167    4.9512   -3.4328 H   0  0  0  0  0  0  0  0  0  0  0  0
   -4.4794    3.4713   -1.0534 H   0  0  0  0  0  0  0  0  0  0  0  0
   -2.9034    3.3010   -0.1881 H   0  0  0  0  0  0  0  0  0  0  0  0
   -4.3286    2.8988    0.6503 H   0  0  0  0  0  0  0  0  0  0  0  0
   -2.7179    1.4467   -4.4829 H   0  0  0  0  0  0  0  0  0  0  0  0
   -2.3455    3.5668    3.0541 C   0  0  0  0  0  0  0  0  0  0  0  0
   -2.4602    2.5152    3.8737 C   0  0  0  0  0  0  0  0  0  0  0  0
   -1.3104    2.2304    4.8345 C   0  0  0  0  0  0  0  0  0  0  0  0
   -0.2237    3.0589    4.8341 C   0  0  0  0  0  0  0  0  0  0  0  0
   -0.1727    4.2252    3.9427 C   0  0  0  0  0  0  0  0  0  0  0  0
   -1.1684    4.4534    3.0875 C   0  0  0  0  0  0  0  0  0  0  0  0
   -1.2925    1.1668    5.9277 C   0  5  0  0  0  0  0  0  0  0  0  0
    0.0264    0.5621    6.2449 C   0  0  0  0  0  0  0  0  0  0  0  0
    1.1457    1.3907    6.1628 C   0  0  0  0  0  0  0  0  0  0  0  0
    0.9798    2.7623    5.6554 C   0  0  0  0  0  0  0  0  0  0  0  0
   -2.5005    0.4359    6.4039 C   0  0  0  0  0  0  0  0  0  0  0  0
   -2.4063   -0.9204    6.7598 C   0  0  0  0  0  0  0  0  0  0  0  0
   -1.0822   -1.5895    6.8250 C   0  0  0  0  0  0  0  0  0  0  0  0
    0.1358   -0.7606    6.6821 C   0  0  0  0  0  0  0  0  0  0  0  0
    1.3948   -1.2589    7.0250 C   0  0  0  0  0  0  0  0  0  0  0  0
    2.5287   -0.4303    6.9372 C   0  0  0  0  0  0  0  0  0  0  0  0
    2.3947    0.8927    6.5120 C   0  0  0  0  0  0  0  0  0  0  0  0
   -3.7075    1.1303    6.5933 C   0  0  0  0  0  0  0  0  0  0  0  0
   -4.8471    0.4379    6.9684 C   0  0  0  0  0  0  0  0  0  0  0  0
   -4.7842   -0.9310    7.2328 C   0  0  0  0  0  0  0  0  0  0  0  0
   -3.5530   -1.6016    7.1621 C   0  0  0  0  0  0  0  0  0  0  0  0
   -3.7736    2.4737    6.4766 O   0  0  0  0  0  0  0  0  0  0  0  0
   -3.5919    1.7447    3.8217 O   0  0  0  0  0  0  0  0  0  0  0  0
   -1.1201    5.5553    2.1365 C   0  0  0  0  0  0  0  0  0  0  0  0
   -5.9824   -1.6686    7.6274 C   0  0  0  0  0  0  0  0  0  0  0  0
    3.8459   -0.9588    7.2889 C   0  0  0  0  0  0  0  0  0  0  0  0
    1.8999    3.5664    5.7297 O   0  0  0  0  0  0  0  0  0  0  0  0
   -0.9934   -2.7598    7.1615 O   0  0  0  0  0  0  0  0  0  0  0  0
    4.8390   -0.2400    7.2034 O   0  0  0  0  0  0  0  0  0  0  0  0
    3.9535   -2.2495    7.6655 O   0  0  0  0  0  0  0  0  0  0  0  0
    5.1199   -2.8632    8.0468 C   0  0  0  0  0  0  0  0  0  0  0  0
   -0.3156    6.4718    2.2725 O   0  0  0  0  0  0  0  0  0  0  0  0
   -1.9291    5.4888    1.0603 O   0  0  0  0  0  0  0  0  0  0  0  0
   -1.9143    6.4039    0.0484 C   0  0  0  0  0  0  0  0  0  0  0  0
   -7.0585   -1.0838    7.7368 O   0  0  0  0  0  0  0  0  0  0  0  0
   -5.8998   -3.0002    7.8195 O   0  0  0  0  0  0  0  0  0  0  0  0
   -6.9810   -3.7791    8.1303 C   0  0  0  0  0  0  0  0  0  0  0  0
   -3.0826    3.2863    7.3598 C   0  0  0  0  0  0  0  0  0  0  0  0
   -4.8753    2.1826    3.4767 C   0  0  0  0  0  0  0  0  0  0  0  0
    4.9702   -3.3247    9.0424 H   0  0  0  0  0  0  0  0  0  0  0  0
    5.9648   -2.1459    8.1101 H   0  0  0  0  0  0  0  0  0  0  0  0
    5.3583   -3.6411    7.2962 H   0  0  0  0  0  0  0  0  0  0  0  0
    1.4864   -2.2769    7.3798 H   0  0  0  0  0  0  0  0  0  0  0  0
    3.2639    1.5309    6.4318 H   0  0  0  0  0  0  0  0  0  0  0  0
   -3.4803   -2.6438    7.4440 H   0  0  0  0  0  0  0  0  0  0  0  0
   -5.7752    0.9848    7.0802 H   0  0  0  0  0  0  0  0  0  0  0  0
   -5.5797    1.3314    3.5273 H   0  0  0  0  0  0  0  0  0  0  0  0
   -5.0211    2.6214    2.4848 H   0  0  0  0  0  0  0  0  0  0  0  0
   -5.1817    2.9966    4.1565 H   0  0  0  0  0  0  0  0  0  0  0  0
   -7.4029   -3.4402    9.0989 H   0  0  0  0  0  0  0  0  0  0  0  0
   -6.6519   -4.8329    8.2091 H   0  0  0  0  0  0  0  0  0  0  0  0
   -7.7410   -3.6856    7.3253 H   0  0  0  0  0  0  0  0  0  0  0  0
   -0.8917    6.4731   -0.3681 H   0  0  0  0  0  0  0  0  0  0  0  0
   -2.2176    7.3856    0.4559 H   0  0  0  0  0  0  0  0  0  0  0  0
   -2.6121    6.0695   -0.7444 H   0  0  0  0  0  0  0  0  0  0  0  0
    0.7051    4.8669    3.9520 H   0  0  0  0  0  0  0  0  0  0  0  0
   -3.2140    4.3476    7.0801 H   0  0  0  0  0  0  0  0  0  0  0  0
   -1.9963    3.0674    7.3757 H   0  0  0  0  0  0  0  0  0  0  0  0
   -3.4660    3.1179    8.3884 H   0  0  0  0  0  0  0  0  0  0  0  0
   -3.1315    3.7987    2.3570 H   0  0  0  0  0  0  0  0  0  0  0  0
  1  2  2  0  0  0  0
  1 60  1  0  0  0  0
  2  3  1  0  0  0  0
  2 23  1  0  0  0  0
  3  4  2  0  0  0  0
  4  5  1  0  0  0  0
  5  6  2  0  0  0  0
  5 56  1  0  0  0  0
  6  1  1  0  0  0  0
  6 24  1  0  0  0  0
  7  3  1  0  0  0  0
  7  8  1  0  0  0  0
  8  9  2  0  0  0  0
  9 10  1  0  0  0  0
 10  4  1  0  0  0  0
 10 27  2  0  0  0  0
 11 12  2  0  0  0  0
 11 18  1  0  0  0  0
 11  7  1  0  0  0  0
 12 13  1  0  0  0  0
 13 14  1  0  0  0  0
 13 28  2  0  0  0  0
 14  8  1  0  0  0  0
 14 15  2  0  0  0  0
 15 16  1  0  0  0  0
 15 43  1  0  0  0  0
 16 17  2  0  0  0  0
 16 26  1  0  0  0  0
 17  9  1  0  0  0  0
 17 44  1  0  0  0  0
 18 19  2  0  0  0  0
 19 20  1  0  0  0  0
 19 46  1  0  0  0  0
 20 21  2  0  0  0  0
 20 25  1  0  0  0  0
 21 12  1  0  0  0  0
 21 45  1  0  0  0  0
 22 38  1  0  0  0  0
 22 18  1  0  0  0  0
 23 39  1  0  0  0  0
 24 32  2  0  0  0  0
 24 33  1  0  0  0  0
 25 35  2  0  0  0  0
 25 36  1  0  0  0  0
 26 29  2  0  0  0  0
 26 30  1  0  0  0  0
 30 31  1  0  0  0  0
 31 40  1  0  0  0  0
 31 41  1  0  0  0  0
 31 42  1  0  0  0  0
 33 34  1  0  0  0  0
 34 53  1  0  0  0  0
 34 54  1  0  0  0  0
 34 55  1  0  0  0  0
 36 37  1  0  0  0  0
 37 50  1  0  0  0  0
 37 51  1  0  0  0  0
 37 52  1  0  0  0  0
 38 57  1  0  0  0  0
 38 58  1  0  0  0  0
 38 59  1  0  0  0  0
 39 47  1  0  0  0  0
 39 48  1  0  0  0  0
 39 49  1  0  0  0  0
 61 62  2  0  0  0  0
 61120  1  0  0  0  0
 62 63  1  0  0  0  0
 62 83  1  0  0  0  0
 63 64  2  0  0  0  0
 64 65  1  0  0  0  0
 65 66  2  0  0  0  0
 65116  1  0  0  0  0
 66 61  1  0  0  0  0
 66 84  1  0  0  0  0
 67 63  1  0  0  0  0
 67 68  1  0  0  0  0
 68 69  2  0  0  0  0
 69 70  1  0  0  0  0
 70 64  1  0  0  0  0
 70 87  2  0  0  0  0
 71 72  2  0  0  0  0
 71 78  1  0  0  0  0
 71 67  1  0  0  0  0
 72 73  1  0  0  0  0
 73 74  1  0  0  0  0
 73 88  2  0  0  0  0
 74 68  1  0  0  0  0
 74 75  2  0  0  0  0
 75 76  1  0  0  0  0
 75103  1  0  0  0  0
 76 77  2  0  0  0  0
 76 86  1  0  0  0  0
 77 69  1  0  0  0  0
 77104  1  0  0  0  0
 78 79  2  0  0  0  0
 79 80  1  0  0  0  0
 79106  1  0  0  0  0
 80 81  2  0  0  0  0
 80 85  1  0  0  0  0
 81 72  1  0  0  0  0
 81105  1  0  0  0  0
 82 98  1  0  0  0  0
 82 78  1  0  0  0  0
 83 99  1  0  0  0  0
 84 92  2  0  0  0  0
 84 93  1  0  0  0  0
 85 95  2  0  0  0  0
 85 96  1  0  0  0  0
 86 89  2  0  0  0  0
 86 90  1  0  0  0  0
 90 91  1  0  0  0  0
 91100  1  0  0  0  0
 91101  1  0  0  0  0
 91102  1  0  0  0  0
 93 94  1  0  0  0  0
 94113  1  0  0  0  0
 94114  1  0  0  0  0
 94115  1  0  0  0  0
 96 97  1  0  0  0  0
 97110  1  0  0  0  0
 97111  1  0  0  0  0
 97112  1  0  0  0  0
 98117  1  0  0  0  0
 98118  1  0  0  0  0
 98119  1  0  0  0  0
 99107  1  0  0  0  0
 99108  1  0  0  0  0
 99109  1  0  0  0  0
M  CHG  2   7  -1  67  -1
M  END
