 energy: -113.503281002191 gnorm: 0.000671550872 xtb: 6.6.1 (8d0f1dd)
          11042416213D

 60 64  0     0  0            999 V2000
   -2.0993    2.4320   -1.5628 C   0  0  0  0  0  0  0  0  0  0  0  0
   -1.8242    1.2803   -0.8389 C   0  0  0  0  0  0  0  0  0  0  0  0
   -0.7334    1.2722    0.0818 C   0  0  0  0  0  0  0  0  0  0  0  0
    0.1670    2.3628    0.0611 C   0  0  0  0  0  0  0  0  0  0  0  0
   -0.1195    3.4948   -0.6849 C   0  0  0  0  0  0  0  0  0  0  0  0
   -1.2723    3.5491   -1.4613 C   0  0  0  0  0  0  0  0  0  0  0  0
   -0.5071    0.1924    0.9842 C   0  0  0  0  0  0  0  0  0  0  0  0
    0.8247   -0.0314    1.4359 C   0  0  0  0  0  0  0  0  0  0  0  0
    1.8006    0.9846    1.3392 C   0  0  0  0  0  0  0  0  0  0  0  0
    1.4366    2.3154    0.8151 C   0  0  0  0  0  0  0  0  0  0  0  0
   -1.5371   -0.6687    1.4899 C   0  0  0  0  0  0  0  0  0  0  0  0
   -1.1973   -1.9564    1.9600 C   0  0  0  0  0  0  0  0  0  0  0  0
    0.2137   -2.3771    2.0712 C   0  0  0  0  0  0  0  0  0  0  0  0
    1.1998   -1.2852    1.9661 C   0  0  0  0  0  0  0  0  0  0  0  0
    2.5118   -1.5147    2.3536 C   0  0  0  0  0  0  0  0  0  0  0  0
    3.4633   -0.5022    2.2688 C   0  0  0  0  0  0  0  0  0  0  0  0
    3.0958    0.7465    1.7716 C   0  0  0  0  0  0  0  0  0  0  0  0
   -2.8846   -0.2530    1.6351 C   0  0  0  0  0  0  0  0  0  0  0  0
   -3.8435   -1.1418    2.0729 C   0  0  0  0  0  0  0  0  0  0  0  0
   -3.5095   -2.4557    2.4104 C   0  0  0  0  0  0  0  0  0  0  0  0
   -2.1785   -2.8426    2.3870 C   0  0  0  0  0  0  0  0  0  0  0  0
   -3.2695    1.0463    1.3707 O   0  0  0  0  0  0  0  0  0  0  0  0
   -2.4711    0.1150   -1.0060 O   0  0  0  0  0  0  0  0  0  0  0  0
   -1.5647    4.7963   -2.2112 C   0  0  0  0  0  0  0  0  0  0  0  0
   -4.6009   -3.3712    2.8282 C   0  0  0  0  0  0  0  0  0  0  0  0
    4.8737   -0.7125    2.6877 C   0  0  0  0  0  0  0  0  0  0  0  0
    2.1536    3.2894    0.9507 O   0  0  0  0  0  0  0  0  0  0  0  0
    0.5370   -3.5283    2.3047 O   0  0  0  0  0  0  0  0  0  0  0  0
    5.7411    0.1185    2.5871 O   0  0  0  0  0  0  0  0  0  0  0  0
    5.0776   -1.9367    3.1904 O   0  0  0  0  0  0  0  0  0  0  0  0
    6.4047   -2.2219    3.6059 C   0  0  0  0  0  0  0  0  0  0  0  0
   -0.8842    5.7896   -2.1704 O   0  0  0  0  0  0  0  0  0  0  0  0
   -2.6830    4.7021   -2.9494 O   0  0  0  0  0  0  0  0  0  0  0  0
   -3.0259    5.8617   -3.6939 C   0  0  0  0  0  0  0  0  0  0  0  0
   -5.7693   -3.0680    2.8344 O   0  0  0  0  0  0  0  0  0  0  0  0
   -4.1429   -4.5701    3.2040 O   0  0  0  0  0  0  0  0  0  0  0  0
   -5.1159   -5.5164    3.6204 C   0  0  0  0  0  0  0  0  0  0  0  0
   -2.9779    1.9547    2.4140 C   0  0  0  0  0  0  0  0  0  0  0  0
   -3.6282    0.0735   -1.8100 C   0  0  0  0  0  0  0  0  0  0  0  0
    6.3999   -3.2528    3.9507 H   0  0  0  0  0  0  0  0  0  0  0  0
    6.7030   -1.5483    4.4120 H   0  0  0  0  0  0  0  0  0  0  0  0
    7.0982   -2.0976    2.7716 H   0  0  0  0  0  0  0  0  0  0  0  0
    2.7782   -2.4923    2.7260 H   0  0  0  0  0  0  0  0  0  0  0  0
    3.8287    1.5385    1.7142 H   0  0  0  0  0  0  0  0  0  0  0  0
   -1.8799   -3.8292    2.7062 H   0  0  0  0  0  0  0  0  0  0  0  0
   -4.8712   -0.8216    2.1603 H   0  0  0  0  0  0  0  0  0  0  0  0
   -3.9966   -0.9482   -1.7349 H   0  0  0  0  0  0  0  0  0  0  0  0
   -3.3992    0.3020   -2.8552 H   0  0  0  0  0  0  0  0  0  0  0  0
   -4.3894    0.7627   -1.4361 H   0  0  0  0  0  0  0  0  0  0  0  0
   -4.5810   -6.2838    4.1739 H   0  0  0  0  0  0  0  0  0  0  0  0
   -5.6107   -5.9529    2.7503 H   0  0  0  0  0  0  0  0  0  0  0  0
   -5.8673   -5.0358    4.2499 H   0  0  0  0  0  0  0  0  0  0  0  0
   -3.9492    5.6266   -4.2161 H   0  0  0  0  0  0  0  0  0  0  0  0
   -2.2334    6.1038   -4.4042 H   0  0  0  0  0  0  0  0  0  0  0  0
   -3.1677    6.7129   -3.0259 H   0  0  0  0  0  0  0  0  0  0  0  0
    0.5565    4.3360   -0.6568 H   0  0  0  0  0  0  0  0  0  0  0  0
   -3.3308    2.9266    2.0750 H   0  0  0  0  0  0  0  0  0  0  0  0
   -1.9017    2.0081    2.6123 H   0  0  0  0  0  0  0  0  0  0  0  0
   -3.4987    1.6742    3.3354 H   0  0  0  0  0  0  0  0  0  0  0  0
   -2.9488    2.4802   -2.2230 H   0  0  0  0  0  0  0  0  0  0  0  0
  1  2  2  0  0  0  0
  1 60  1  0  0  0  0
  2  3  1  0  0  0  0
  2 23  1  0  0  0  0
  3  4  2  0  0  0  0
  3  7  1  0  0  0  0
  4  5  1  0  0  0  0
  5  6  2  0  0  0  0
  5 56  1  0  0  0  0
  6  1  1  0  0  0  0
  6 24  1  0  0  0  0
  7  8  1  0  0  0  0
  8  9  2  0  0  0  0
  9 10  1  0  0  0  0
 10  4  1  0  0  0  0
 10 27  2  0  0  0  0
 11 12  2  0  0  0  0
 11 18  1  0  0  0  0
 11  7  1  0  0  0  0
 12 13  1  0  0  0  0
 13 14  1  0  0  0  0
 13 28  2  0  0  0  0
 14  8  1  0  0  0  0
 14 15  2  0  0  0  0
 15 16  1  0  0  0  0
 15 43  1  0  0  0  0
 16 17  2  0  0  0  0
 16 26  1  0  0  0  0
 17  9  1  0  0  0  0
 17 44  1  0  0  0  0
 18 19  2  0  0  0  0
 19 20  1  0  0  0  0
 19 46  1  0  0  0  0
 20 21  2  0  0  0  0
 20 25  1  0  0  0  0
 21 12  1  0  0  0  0
 21 45  1  0  0  0  0
 22 38  1  0  0  0  0
 22 18  1  0  0  0  0
 23 39  1  0  0  0  0
 24 32  2  0  0  0  0
 24 33  1  0  0  0  0
 25 35  2  0  0  0  0
 25 36  1  0  0  0  0
 26 29  2  0  0  0  0
 26 30  1  0  0  0  0
 30 31  1  0  0  0  0
 31 40  1  0  0  0  0
 31 41  1  0  0  0  0
 31 42  1  0  0  0  0
 33 34  1  0  0  0  0
 34 53  1  0  0  0  0
 34 54  1  0  0  0  0
 34 55  1  0  0  0  0
 36 37  1  0  0  0  0
 37 50  1  0  0  0  0
 37 51  1  0  0  0  0
 37 52  1  0  0  0  0
 38 57  1  0  0  0  0
 38 58  1  0  0  0  0
 38 59  1  0  0  0  0
 39 47  1  0  0  0  0
 39 48  1  0  0  0  0
 39 49  1  0  0  0  0
M  CHG  1   1   0
M  END
