 energy: -222.346072946598 gnorm: 0.000445901944 xtb: 6.6.1 (8d0f1dd)
          11122409073D

156164  0     0  0            999 V2000
   -1.5722    1.4743    0.0936 C   0  0  0  0  0  0  0  0  0  0  0  0
   -1.7025    0.1299    0.3809 C   0  0  0  0  0  0  0  0  0  0  0  0
   -0.9315   -0.4572    1.4222 C   0  0  0  0  0  0  0  0  0  0  0  0
    0.0631    0.3536    2.0067 C   0  0  0  0  0  0  0  0  0  0  0  0
    0.1659    1.7090    1.6987 C   0  0  0  0  0  0  0  0  0  0  0  0
   -0.6604    2.2989    0.7615 C   0  0  0  0  0  0  0  0  0  0  0  0
   -1.0225   -1.8338    1.7937 C   0  0  0  0  0  0  0  0  0  0  0  0
    0.1623   -2.4389    2.2894 C   0  0  0  0  0  0  0  0  0  0  0  0
    1.2078   -1.6637    2.8316 C   0  0  0  0  0  0  0  0  0  0  0  0
    1.0616   -0.2106    2.9255 C   0  0  0  0  0  0  0  0  0  0  0  0
   -2.1664   -2.6703    1.5951 C   0  0  0  0  0  0  0  0  0  0  0  0
   -1.9936   -4.0570    1.4265 C   0  0  0  0  0  0  0  0  0  0  0  0
   -0.6758   -4.6928    1.6092 C   0  0  0  0  0  0  0  0  0  0  0  0
    0.3682   -3.8304    2.1762 C   0  0  0  0  0  0  0  0  0  0  0  0
    1.6053   -4.3764    2.4780 C   0  0  0  0  0  0  0  0  0  0  0  0
    2.6604   -3.6045    2.9635 C   0  0  0  0  0  0  0  0  0  0  0  0
    2.4138   -2.2566    3.1904 C   0  0  0  0  0  0  0  0  0  0  0  0
   -3.5017   -2.1901    1.5892 C   0  0  0  0  0  0  0  0  0  0  0  0
   -4.5385   -3.0223    1.2122 C   0  0  0  0  0  0  0  0  0  0  0  0
   -4.3344   -4.3688    0.8934 C   0  0  0  0  0  0  0  0  0  0  0  0
   -3.0599   -4.8759    1.0633 C   0  0  0  0  0  0  0  0  0  0  0  0
   -3.6910   -0.9111    2.0276 O   0  0  0  0  0  0  0  0  0  0  0  0
   -2.4883   -0.7099   -0.3471 O   0  0  0  0  0  0  0  0  0  0  0  0
    1.7767    0.4968    3.6306 O   0  0  0  0  0  0  0  0  0  0  0  0
   -0.4823   -5.8675    1.3284 O   0  0  0  0  0  0  0  0  0  0  0  0
   -4.9839   -0.3628    1.9938 C   0  0  0  0  0  0  0  0  0  0  0  0
   -3.1497   -0.2250   -1.4863 C   0  0  0  0  0  0  0  0  0  0  0  0
   -5.5026   -5.2025    0.3970 C   0  0  0  0  0  0  0  0  0  0  0  0
   -5.0976   -6.6493    0.1058 C   0  0  0  0  0  0  0  0  0  0  0  0
   -6.6175   -5.2219    1.4516 C   0  0  0  0  0  0  0  0  0  0  0  0
   -6.0281   -4.5771   -0.9037 C   0  0  0  0  0  0  0  0  0  0  0  0
   -0.5917    3.7717    0.3948 C   0  0  0  0  0  0  0  0  0  0  0  0
   -1.9473    4.4250    0.7021 C   0  0  0  0  0  0  0  0  0  0  0  0
    0.4917    4.5145    1.1793 C   0  0  0  0  0  0  0  0  0  0  0  0
   -0.2750    3.9117   -1.1012 C   0  0  0  0  0  0  0  0  0  0  0  0
    4.0410   -4.2185    3.0980 C   0  0  0  0  0  0  0  0  0  0  0  0
    4.9597   -3.3856    3.9954 C   0  0  0  0  0  0  0  0  0  0  0  0
    4.6461   -4.2601    1.6841 C   0  0  0  0  0  0  0  0  0  0  0  0
    3.9470   -5.6475    3.6498 C   0  0  0  0  0  0  0  0  0  0  0  0
    4.9182   -5.9719    4.0167 H   0  0  0  0  0  0  0  0  0  0  0  0
    3.6344   -6.3460    2.8784 H   0  0  0  0  0  0  0  0  0  0  0  0
    3.2257   -5.6952    4.4600 H   0  0  0  0  0  0  0  0  0  0  0  0
    5.9157   -3.8933    4.1072 H   0  0  0  0  0  0  0  0  0  0  0  0
    4.5202   -3.2516    4.9798 H   0  0  0  0  0  0  0  0  0  0  0  0
    5.1571   -2.4083    3.5617 H   0  0  0  0  0  0  0  0  0  0  0  0
    5.6298   -4.7242    1.7136 H   0  0  0  0  0  0  0  0  0  0  0  0
    4.7489   -3.2534    1.2833 H   0  0  0  0  0  0  0  0  0  0  0  0
    4.0117   -4.8321    1.0109 H   0  0  0  0  0  0  0  0  0  0  0  0
   -6.8500   -5.1700   -1.2991 H   0  0  0  0  0  0  0  0  0  0  0  0
   -5.2364   -4.5444   -1.6491 H   0  0  0  0  0  0  0  0  0  0  0  0
   -6.3873   -3.5639   -0.7417 H   0  0  0  0  0  0  0  0  0  0  0  0
   -7.4507   -5.8271    1.1004 H   0  0  0  0  0  0  0  0  0  0  0  0
   -6.9905   -4.2232    1.6622 H   0  0  0  0  0  0  0  0  0  0  0  0
   -6.2446   -5.6522    2.3776 H   0  0  0  0  0  0  0  0  0  0  0  0
   -5.9594   -7.2008   -0.2648 H   0  0  0  0  0  0  0  0  0  0  0  0
   -4.7427   -7.1434    1.0066 H   0  0  0  0  0  0  0  0  0  0  0  0
   -4.3187   -6.6914   -0.6511 H   0  0  0  0  0  0  0  0  0  0  0  0
   -4.8758    0.6693    2.3269 H   0  0  0  0  0  0  0  0  0  0  0  0
   -5.6652   -0.8903    2.6706 H   0  0  0  0  0  0  0  0  0  0  0  0
   -5.4009   -0.3710    0.9817 H   0  0  0  0  0  0  0  0  0  0  0  0
   -3.6499   -1.0898   -1.9209 H   0  0  0  0  0  0  0  0  0  0  0  0
   -2.4472    0.1895   -2.2168 H   0  0  0  0  0  0  0  0  0  0  0  0
   -3.8986    0.5341   -1.2330 H   0  0  0  0  0  0  0  0  0  0  0  0
   -0.1638    4.9622   -1.3613 H   0  0  0  0  0  0  0  0  0  0  0  0
   -1.0631    3.4932   -1.7210 H   0  0  0  0  0  0  0  0  0  0  0  0
    0.6546    3.3980   -1.3361 H   0  0  0  0  0  0  0  0  0  0  0  0
    0.3115    4.4553    2.2488 H   0  0  0  0  0  0  0  0  0  0  0  0
    0.4931    5.5649    0.8952 H   0  0  0  0  0  0  0  0  0  0  0  0
    1.4758    4.1055    0.9655 H   0  0  0  0  0  0  0  0  0  0  0  0
   -1.9198    5.4820    0.4466 H   0  0  0  0  0  0  0  0  0  0  0  0
   -2.1793    4.3329    1.7615 H   0  0  0  0  0  0  0  0  0  0  0  0
   -2.7502    3.9592    0.1367 H   0  0  0  0  0  0  0  0  0  0  0  0
    1.7227   -5.4342    2.3037 H   0  0  0  0  0  0  0  0  0  0  0  0
    3.1663   -1.6048    3.6062 H   0  0  0  0  0  0  0  0  0  0  0  0
    0.9376    2.2581    2.2138 H   0  0  0  0  0  0  0  0  0  0  0  0
   -2.1783    1.9027   -0.6878 H   0  0  0  0  0  0  0  0  0  0  0  0
   -5.5403   -2.6267    1.1642 H   0  0  0  0  0  0  0  0  0  0  0  0
   -2.8303   -5.9175    0.9089 H   0  0  0  0  0  0  0  0  0  0  0  0
    0.0564    2.2718    5.6202 C   0  0  0  0  0  0  0  0  0  0  0  0
   -0.0370    0.8920    5.5076 C   0  0  0  0  0  0  0  0  0  0  0  0
    0.8638    0.0521    6.2257 C   0  0  0  0  0  0  0  0  0  0  0  0
    1.9440    0.6997    6.8693 C   0  0  0  0  0  0  0  0  0  0  0  0
    2.0223    2.0821    6.9362 C   0  0  0  0  0  0  0  0  0  0  0  0
    1.0640    2.8953    6.3488 C   0  0  0  0  0  0  0  0  0  0  0  0
    0.7542   -1.3643    6.2783 C   0  0  0  0  0  0  0  0  0  0  0  0
    1.9087   -2.1152    6.6489 C   0  0  0  0  0  0  0  0  0  0  0  0
    3.0064   -1.5093    7.2886 C   0  0  0  0  0  0  0  0  0  0  0  0
    3.0243   -0.0601    7.5177 C   0  0  0  0  0  0  0  0  0  0  0  0
   -0.4526   -2.1186    6.0788 C   0  0  0  0  0  0  0  0  0  0  0  0
   -0.3763   -3.4661    5.6761 C   0  0  0  0  0  0  0  0  0  0  0  0
    0.8976   -4.1980    5.7178 C   0  0  0  0  0  0  0  0  0  0  0  0
    1.9716   -3.5091    6.4461 C   0  0  0  0  0  0  0  0  0  0  0  0
    3.0377   -4.2466    6.9415 C   0  0  0  0  0  0  0  0  0  0  0  0
    4.0841   -3.6593    7.6496 C   0  0  0  0  0  0  0  0  0  0  0  0
    4.0554   -2.2772    7.7829 C   0  0  0  0  0  0  0  0  0  0  0  0
   -1.7418   -1.6358    6.4201 C   0  0  0  0  0  0  0  0  0  0  0  0
   -2.8627   -2.4077    6.1739 C   0  0  0  0  0  0  0  0  0  0  0  0
   -2.7851   -3.6829    5.6095 C   0  0  0  0  0  0  0  0  0  0  0  0
   -1.5226   -4.2049    5.3953 C   0  0  0  0  0  0  0  0  0  0  0  0
   -1.7931   -0.4455    7.0822 O   0  0  0  0  0  0  0  0  0  0  0  0
   -0.9450    0.2833    4.7167 O   0  0  0  0  0  0  0  0  0  0  0  0
    3.8943    0.4830    8.1873 O   0  0  0  0  0  0  0  0  0  0  0  0
    1.0223   -5.3402    5.2973 O   0  0  0  0  0  0  0  0  0  0  0  0
   -3.0030   -0.0332    7.6625 C   0  0  0  0  0  0  0  0  0  0  0  0
   -2.0174    1.0277    4.1902 C   0  0  0  0  0  0  0  0  0  0  0  0
   -4.0544   -4.4905    5.4007 C   0  0  0  0  0  0  0  0  0  0  0  0
   -3.8045   -5.7408    4.5539 C   0  0  0  0  0  0  0  0  0  0  0  0
   -4.5687   -4.9254    6.7822 C   0  0  0  0  0  0  0  0  0  0  0  0
   -5.1239   -3.6447    4.6989 C   0  0  0  0  0  0  0  0  0  0  0  0
    1.0795    4.4092    6.4694 C   0  0  0  0  0  0  0  0  0  0  0  0
   -0.1743    4.8471    7.2413 C   0  0  0  0  0  0  0  0  0  0  0  0
    2.3124    4.9203    7.2184 C   0  0  0  0  0  0  0  0  0  0  0  0
    1.0735    5.0386    5.0697 C   0  0  0  0  0  0  0  0  0  0  0  0
    5.1679   -4.5299    8.2608 C   0  0  0  0  0  0  0  0  0  0  0  0
    6.2358   -3.7081    8.9868 C   0  0  0  0  0  0  0  0  0  0  0  0
    5.8552   -5.3522    7.1632 C   0  0  0  0  0  0  0  0  0  0  0  0
    4.5072   -5.4747    9.2757 C   0  0  0  0  0  0  0  0  0  0  0  0
    5.2609   -6.0996    9.7500 H   0  0  0  0  0  0  0  0  0  0  0  0
    3.7790   -6.1224    8.7953 H   0  0  0  0  0  0  0  0  0  0  0  0
    3.9983   -4.9016   10.0482 H   0  0  0  0  0  0  0  0  0  0  0  0
    6.9866   -4.3768    9.4030 H   0  0  0  0  0  0  0  0  0  0  0  0
    5.8029   -3.1377    9.8050 H   0  0  0  0  0  0  0  0  0  0  0  0
    6.7348   -3.0253    8.3033 H   0  0  0  0  0  0  0  0  0  0  0  0
    6.6141   -5.9962    7.6026 H   0  0  0  0  0  0  0  0  0  0  0  0
    6.3372   -4.6913    6.4471 H   0  0  0  0  0  0  0  0  0  0  0  0
    5.1442   -5.9771    6.6315 H   0  0  0  0  0  0  0  0  0  0  0  0
   -6.0130   -4.2460    4.5210 H   0  0  0  0  0  0  0  0  0  0  0  0
   -4.7460   -3.2933    3.7421 H   0  0  0  0  0  0  0  0  0  0  0  0
   -5.4204   -2.7869    5.2967 H   0  0  0  0  0  0  0  0  0  0  0  0
   -5.4689   -5.5270    6.6750 H   0  0  0  0  0  0  0  0  0  0  0  0
   -4.8029   -4.0636    7.4030 H   0  0  0  0  0  0  0  0  0  0  0  0
   -3.8145   -5.5189    7.2940 H   0  0  0  0  0  0  0  0  0  0  0  0
   -4.7491   -6.2469    4.3627 H   0  0  0  0  0  0  0  0  0  0  0  0
   -3.1539   -6.4421    5.0686 H   0  0  0  0  0  0  0  0  0  0  0  0
   -3.3553   -5.4769    3.5996 H   0  0  0  0  0  0  0  0  0  0  0  0
   -2.7687    0.8830    8.2038 H   0  0  0  0  0  0  0  0  0  0  0  0
   -3.3878   -0.7785    8.3667 H   0  0  0  0  0  0  0  0  0  0  0  0
   -3.7694    0.1808    6.9088 H   0  0  0  0  0  0  0  0  0  0  0  0
   -2.6311    0.3049    3.6555 H   0  0  0  0  0  0  0  0  0  0  0  0
   -1.6812    1.7946    3.4856 H   0  0  0  0  0  0  0  0  0  0  0  0
   -2.5985    1.4966    4.9918 H   0  0  0  0  0  0  0  0  0  0  0  0
    1.1962    6.1171    5.1429 H   0  0  0  0  0  0  0  0  0  0  0  0
    0.1381    4.8431    4.5521 H   0  0  0  0  0  0  0  0  0  0  0  0
    1.8907    4.6362    4.4756 H   0  0  0  0  0  0  0  0  0  0  0  0
    2.3435    4.5325    8.2332 H   0  0  0  0  0  0  0  0  0  0  0  0
    2.2795    6.0067    7.2745 H   0  0  0  0  0  0  0  0  0  0  0  0
    3.2248    4.6351    6.7012 H   0  0  0  0  0  0  0  0  0  0  0  0
   -0.1945    5.9304    7.3391 H   0  0  0  0  0  0  0  0  0  0  0  0
   -0.1729    4.4100    8.2375 H   0  0  0  0  0  0  0  0  0  0  0  0
   -1.0818    4.5321    6.7320 H   0  0  0  0  0  0  0  0  0  0  0  0
    3.0107   -5.3132    6.7752 H   0  0  0  0  0  0  0  0  0  0  0  0
    4.8373   -1.7389    8.2948 H   0  0  0  0  0  0  0  0  0  0  0  0
    2.8651    2.4872    7.4721 H   0  0  0  0  0  0  0  0  0  0  0  0
   -0.6660    2.8817    5.1028 H   0  0  0  0  0  0  0  0  0  0  0  0
   -3.8301   -2.0200    6.4479 H   0  0  0  0  0  0  0  0  0  0  0  0
   -1.3691   -5.2144    5.0508 H   0  0  0  0  0  0  0  0  0  0  0  0
  1  2  2  0  0  0  0
  1 76  1  0  0  0  0
  2  3  1  0  0  0  0
  2 23  1  0  0  0  0
  3  4  2  0  0  0  0
  3  7  1  0  0  0  0
  4  5  1  0  0  0  0
  5  6  2  0  0  0  0
  5 75  1  0  0  0  0
  6 32  1  0  0  0  0
  6  1  1  0  0  0  0
  7  8  1  0  0  0  0
  8  9  2  0  0  0  0
  9 10  1  0  0  0  0
 10  4  1  0  0  0  0
 10 24  2  0  0  0  0
 11 12  2  0  0  0  0
 11 18  1  0  0  0  0
 11  7  1  0  0  0  0
 12 13  1  0  0  0  0
 13 14  1  0  0  0  0
 13 25  2  0  0  0  0
 14  8  1  0  0  0  0
 14 15  2  0  0  0  0
 15 16  1  0  0  0  0
 15 73  1  0  0  0  0
 16 36  1  0  0  0  0
 16 17  2  0  0  0  0
 17  9  1  0  0  0  0
 17 74  1  0  0  0  0
 18 19  2  0  0  0  0
 19 20  1  0  0  0  0
 19 77  1  0  0  0  0
 20 28  1  0  0  0  0
 20 21  2  0  0  0  0
 21 12  1  0  0  0  0
 21 78  1  0  0  0  0
 22 26  1  0  0  0  0
 22 18  1  0  0  0  0
 23 27  1  0  0  0  0
 26 58  1  0  0  0  0
 26 59  1  0  0  0  0
 26 60  1  0  0  0  0
 27 61  1  0  0  0  0
 27 62  1  0  0  0  0
 27 63  1  0  0  0  0
 28 29  1  0  0  0  0
 28 30  1  0  0  0  0
 28 31  1  0  0  0  0
 29 55  1  0  0  0  0
 29 56  1  0  0  0  0
 29 57  1  0  0  0  0
 30 52  1  0  0  0  0
 30 53  1  0  0  0  0
 30 54  1  0  0  0  0
 31 49  1  0  0  0  0
 31 50  1  0  0  0  0
 31 51  1  0  0  0  0
 32 33  1  0  0  0  0
 32 34  1  0  0  0  0
 32 35  1  0  0  0  0
 33 70  1  0  0  0  0
 33 71  1  0  0  0  0
 33 72  1  0  0  0  0
 34 67  1  0  0  0  0
 34 68  1  0  0  0  0
 34 69  1  0  0  0  0
 35 64  1  0  0  0  0
 35 65  1  0  0  0  0
 35 66  1  0  0  0  0
 36 37  1  0  0  0  0
 36 38  1  0  0  0  0
 36 39  1  0  0  0  0
 37 43  1  0  0  0  0
 37 44  1  0  0  0  0
 37 45  1  0  0  0  0
 38 46  1  0  0  0  0
 38 47  1  0  0  0  0
 38 48  1  0  0  0  0
 39 40  1  0  0  0  0
 39 41  1  0  0  0  0
 39 42  1  0  0  0  0
 79 80  2  0  0  0  0
 79154  1  0  0  0  0
 80 81  1  0  0  0  0
 80101  1  0  0  0  0
 81 82  2  0  0  0  0
 81 85  1  0  0  0  0
 82 83  1  0  0  0  0
 83 84  2  0  0  0  0
 83153  1  0  0  0  0
 84110  1  0  0  0  0
 84 79  1  0  0  0  0
 85 86  1  0  0  0  0
 86 87  2  0  0  0  0
 87 88  1  0  0  0  0
 88 82  1  0  0  0  0
 88102  2  0  0  0  0
 89 90  2  0  0  0  0
 89 96  1  0  0  0  0
 89 85  1  0  0  0  0
 90 91  1  0  0  0  0
 91 92  1  0  0  0  0
 91103  2  0  0  0  0
 92 86  1  0  0  0  0
 92 93  2  0  0  0  0
 93 94  1  0  0  0  0
 93151  1  0  0  0  0
 94114  1  0  0  0  0
 94 95  2  0  0  0  0
 95 87  1  0  0  0  0
 95152  1  0  0  0  0
 96 97  2  0  0  0  0
 97 98  1  0  0  0  0
 97155  1  0  0  0  0
 98106  1  0  0  0  0
 98 99  2  0  0  0  0
 99 90  1  0  0  0  0
 99156  1  0  0  0  0
100104  1  0  0  0  0
100 96  1  0  0  0  0
101105  1  0  0  0  0
104136  1  0  0  0  0
104137  1  0  0  0  0
104138  1  0  0  0  0
105139  1  0  0  0  0
105140  1  0  0  0  0
105141  1  0  0  0  0
106107  1  0  0  0  0
106108  1  0  0  0  0
106109  1  0  0  0  0
107133  1  0  0  0  0
107134  1  0  0  0  0
107135  1  0  0  0  0
108130  1  0  0  0  0
108131  1  0  0  0  0
108132  1  0  0  0  0
109127  1  0  0  0  0
109128  1  0  0  0  0
109129  1  0  0  0  0
110111  1  0  0  0  0
110112  1  0  0  0  0
110113  1  0  0  0  0
111148  1  0  0  0  0
111149  1  0  0  0  0
111150  1  0  0  0  0
112145  1  0  0  0  0
112146  1  0  0  0  0
112147  1  0  0  0  0
113142  1  0  0  0  0
113143  1  0  0  0  0
113144  1  0  0  0  0
114115  1  0  0  0  0
114116  1  0  0  0  0
114117  1  0  0  0  0
115121  1  0  0  0  0
115122  1  0  0  0  0
115123  1  0  0  0  0
116124  1  0  0  0  0
116125  1  0  0  0  0
116126  1  0  0  0  0
117118  1  0  0  0  0
117119  1  0  0  0  0
117120  1  0  0  0  0
M  CHG  1   1   0
M  END
