 energy: -111.157331049817 gnorm: 0.000162465453 xtb: 6.6.1 (8d0f1dd)
          11122408583D

 78 82  0     0  0            999 V2000
   -0.9196    1.8557   -0.2176 C   0  0  0  0  0  0  0  0  0  0  0  0
   -0.9802    0.4781   -0.1197 C   0  0  0  0  0  0  0  0  0  0  0  0
   -0.0273   -0.2218    0.6689 C   0  0  0  0  0  0  0  0  0  0  0  0
    1.0703    0.5218    1.1470 C   0  0  0  0  0  0  0  0  0  0  0  0
    1.1013    1.9084    1.0348 C   0  0  0  0  0  0  0  0  0  0  0  0
    0.0881    2.6031    0.3984 C   0  0  0  0  0  0  0  0  0  0  0  0
   -0.0905   -1.6280    0.9119 C   0  0  0  0  0  0  0  0  0  0  0  0
    1.1378   -2.3036    1.1529 C   0  0  0  0  0  0  0  0  0  0  0  0
    2.2936   -1.6008    1.5459 C   0  0  0  0  0  0  0  0  0  0  0  0
    2.2435   -0.1444    1.7363 C   0  0  0  0  0  0  0  0  0  0  0  0
   -1.2871   -2.4089    0.9498 C   0  0  0  0  0  0  0  0  0  0  0  0
   -1.2218   -3.7997    0.7291 C   0  0  0  0  0  0  0  0  0  0  0  0
    0.0711   -4.4911    0.5959 C   0  0  0  0  0  0  0  0  0  0  0  0
    1.2403   -3.7022    1.0079 C   0  0  0  0  0  0  0  0  0  0  0  0
    2.4512   -4.3417    1.2252 C   0  0  0  0  0  0  0  0  0  0  0  0
    3.5912   -3.6542    1.6358 C   0  0  0  0  0  0  0  0  0  0  0  0
    3.4804   -2.2788    1.7998 C   0  0  0  0  0  0  0  0  0  0  0  0
   -2.5554   -1.8774    1.3092 C   0  0  0  0  0  0  0  0  0  0  0  0
   -3.6813   -2.6791    1.2665 C   0  0  0  0  0  0  0  0  0  0  0  0
   -3.6230   -4.0318    0.9210 C   0  0  0  0  0  0  0  0  0  0  0  0
   -2.3737   -4.5787    0.6890 C   0  0  0  0  0  0  0  0  0  0  0  0
   -2.5696   -0.5954    1.7581 O   0  0  0  0  0  0  0  0  0  0  0  0
   -1.8747   -0.2840   -0.8007 O   0  0  0  0  0  0  0  0  0  0  0  0
    3.1444    0.4773    2.2847 O   0  0  0  0  0  0  0  0  0  0  0  0
    0.1591   -5.6589    0.2401 O   0  0  0  0  0  0  0  0  0  0  0  0
   -3.7783   -0.0244    2.1874 C   0  0  0  0  0  0  0  0  0  0  0  0
   -2.7880    0.3350   -1.6693 C   0  0  0  0  0  0  0  0  0  0  0  0
   -4.9072   -4.8403    0.8639 C   0  0  0  0  0  0  0  0  0  0  0  0
   -4.6578   -6.2980    0.4697 C   0  0  0  0  0  0  0  0  0  0  0  0
   -5.5763   -4.8242    2.2462 C   0  0  0  0  0  0  0  0  0  0  0  0
   -5.8465   -4.2146   -0.1773 C   0  0  0  0  0  0  0  0  0  0  0  0
    0.0491    4.1186    0.3097 C   0  0  0  0  0  0  0  0  0  0  0  0
   -1.2718    4.6179    0.9136 C   0  0  0  0  0  0  0  0  0  0  0  0
    1.2014    4.7736    1.0751 C   0  0  0  0  0  0  0  0  0  0  0  0
    0.1433    4.5448   -1.1624 C   0  0  0  0  0  0  0  0  0  0  0  0
    4.8772   -4.4203    1.8882 C   0  0  0  0  0  0  0  0  0  0  0  0
    6.0244   -3.5093    2.3314 C   0  0  0  0  0  0  0  0  0  0  0  0
    5.2947   -5.1324    0.5937 C   0  0  0  0  0  0  0  0  0  0  0  0
    4.6252   -5.4566    2.9930 C   0  0  0  0  0  0  0  0  0  0  0  0
    5.5389   -6.0086    3.2021 H   0  0  0  0  0  0  0  0  0  0  0  0
    3.8566   -6.1669    2.7016 H   0  0  0  0  0  0  0  0  0  0  0  0
    4.3044   -4.9611    3.9071 H   0  0  0  0  0  0  0  0  0  0  0  0
    6.9188   -4.1068    2.4957 H   0  0  0  0  0  0  0  0  0  0  0  0
    5.7837   -3.0013    3.2622 H   0  0  0  0  0  0  0  0  0  0  0  0
    6.2511   -2.7669    1.5699 H   0  0  0  0  0  0  0  0  0  0  0  0
    6.2190   -5.6834    0.7530 H   0  0  0  0  0  0  0  0  0  0  0  0
    5.4584   -4.4057   -0.1994 H   0  0  0  0  0  0  0  0  0  0  0  0
    4.5330   -5.8326    0.2628 H   0  0  0  0  0  0  0  0  0  0  0  0
   -6.7713   -4.7844   -0.2355 H   0  0  0  0  0  0  0  0  0  0  0  0
   -5.3750   -4.2205   -1.1576 H   0  0  0  0  0  0  0  0  0  0  0  0
   -6.0963   -3.1876    0.0757 H   0  0  0  0  0  0  0  0  0  0  0  0
   -6.4706   -5.4434    2.2344 H   0  0  0  0  0  0  0  0  0  0  0  0
   -5.8656   -3.8186    2.5397 H   0  0  0  0  0  0  0  0  0  0  0  0
   -4.8945   -5.2170    2.9974 H   0  0  0  0  0  0  0  0  0  0  0  0
   -5.6070   -6.8272    0.4154 H   0  0  0  0  0  0  0  0  0  0  0  0
   -4.0345   -6.7999    1.2053 H   0  0  0  0  0  0  0  0  0  0  0  0
   -4.1787   -6.3622   -0.5039 H   0  0  0  0  0  0  0  0  0  0  0  0
   -3.5258    0.9880    2.5007 H   0  0  0  0  0  0  0  0  0  0  0  0
   -4.2046   -0.5682    3.0370 H   0  0  0  0  0  0  0  0  0  0  0  0
   -4.5161    0.0217    1.3788 H   0  0  0  0  0  0  0  0  0  0  0  0
   -3.3632   -0.4766   -2.1137 H   0  0  0  0  0  0  0  0  0  0  0  0
   -2.2780    0.8914   -2.4628 H   0  0  0  0  0  0  0  0  0  0  0  0
   -3.4674    1.0073   -1.1340 H   0  0  0  0  0  0  0  0  0  0  0  0
    0.1501    5.6301   -1.2362 H   0  0  0  0  0  0  0  0  0  0  0  0
   -0.6971    4.1712   -1.7415 H   0  0  0  0  0  0  0  0  0  0  0  0
    1.0605    4.1629   -1.6052 H   0  0  0  0  0  0  0  0  0  0  0  0
    1.1822    4.4899    2.1244 H   0  0  0  0  0  0  0  0  0  0  0  0
    1.1089    5.8562    1.0149 H   0  0  0  0  0  0  0  0  0  0  0  0
    2.1620    4.4945    0.6502 H   0  0  0  0  0  0  0  0  0  0  0  0
   -1.3077    5.7048    0.8854 H   0  0  0  0  0  0  0  0  0  0  0  0
   -1.3541    4.2966    1.9497 H   0  0  0  0  0  0  0  0  0  0  0  0
   -2.1310    4.2370    0.3680 H   0  0  0  0  0  0  0  0  0  0  0  0
    2.4677   -5.4102    1.0689 H   0  0  0  0  0  0  0  0  0  0  0  0
    4.3137   -1.6775    2.1274 H   0  0  0  0  0  0  0  0  0  0  0  0
    1.9561    2.4046    1.4638 H   0  0  0  0  0  0  0  0  0  0  0  0
   -1.6706    2.3731   -0.7922 H   0  0  0  0  0  0  0  0  0  0  0  0
   -4.6372   -2.2509    1.5208 H   0  0  0  0  0  0  0  0  0  0  0  0
   -2.2356   -5.6271    0.4819 H   0  0  0  0  0  0  0  0  0  0  0  0
  1  2  2  0  0  0  0
  1 76  1  0  0  0  0
  2  3  1  0  0  0  0
  2 23  1  0  0  0  0
  3  4  2  0  0  0  0
  3  7  1  0  0  0  0
  4  5  1  0  0  0  0
  5  6  2  0  0  0  0
  5 75  1  0  0  0  0
  6 32  1  0  0  0  0
  6  1  1  0  0  0  0
  7  8  1  0  0  0  0
  8  9  2  0  0  0  0
  9 10  1  0  0  0  0
 10  4  1  0  0  0  0
 10 24  2  0  0  0  0
 11 12  2  0  0  0  0
 11 18  1  0  0  0  0
 11  7  1  0  0  0  0
 12 13  1  0  0  0  0
 13 14  1  0  0  0  0
 13 25  2  0  0  0  0
 14  8  1  0  0  0  0
 14 15  2  0  0  0  0
 15 16  1  0  0  0  0
 15 73  1  0  0  0  0
 16 36  1  0  0  0  0
 16 17  2  0  0  0  0
 17  9  1  0  0  0  0
 17 74  1  0  0  0  0
 18 19  2  0  0  0  0
 19 20  1  0  0  0  0
 19 77  1  0  0  0  0
 20 28  1  0  0  0  0
 20 21  2  0  0  0  0
 21 12  1  0  0  0  0
 21 78  1  0  0  0  0
 22 26  1  0  0  0  0
 22 18  1  0  0  0  0
 23 27  1  0  0  0  0
 26 58  1  0  0  0  0
 26 59  1  0  0  0  0
 26 60  1  0  0  0  0
 27 61  1  0  0  0  0
 27 62  1  0  0  0  0
 27 63  1  0  0  0  0
 28 29  1  0  0  0  0
 28 30  1  0  0  0  0
 28 31  1  0  0  0  0
 29 55  1  0  0  0  0
 29 56  1  0  0  0  0
 29 57  1  0  0  0  0
 30 52  1  0  0  0  0
 30 53  1  0  0  0  0
 30 54  1  0  0  0  0
 31 49  1  0  0  0  0
 31 50  1  0  0  0  0
 31 51  1  0  0  0  0
 32 33  1  0  0  0  0
 32 34  1  0  0  0  0
 32 35  1  0  0  0  0
 33 70  1  0  0  0  0
 33 71  1  0  0  0  0
 33 72  1  0  0  0  0
 34 67  1  0  0  0  0
 34 68  1  0  0  0  0
 34 69  1  0  0  0  0
 35 64  1  0  0  0  0
 35 65  1  0  0  0  0
 35 66  1  0  0  0  0
 36 37  1  0  0  0  0
 36 38  1  0  0  0  0
 36 39  1  0  0  0  0
 37 43  1  0  0  0  0
 37 44  1  0  0  0  0
 37 45  1  0  0  0  0
 38 46  1  0  0  0  0
 38 47  1  0  0  0  0
 38 48  1  0  0  0  0
 39 40  1  0  0  0  0
 39 41  1  0  0  0  0
 39 42  1  0  0  0  0
M  CHG  1   1   0
M  END
