 xtb: 6.7.1 (edcfbbe)
          12022412253D

 78 82  0     0  0            999 V2000
   -0.9359    1.8427   -0.1891 C   0  0  0  0  0  0  0  0  0  0  0  0
   -0.9836    0.4735   -0.0834 C   0  0  0  0  0  0  0  0  0  0  0  0
   -0.0248   -0.2295    0.6969 C   0  0  0  0  0  0  0  0  0  0  0  0
    1.0877    0.5167    1.1342 C   0  0  0  0  0  0  0  0  0  0  0  0
    1.1123    1.9116    1.0080 C   0  0  0  0  0  0  0  0  0  0  0  0
    0.0903    2.6001    0.4036 C   0  0  0  0  0  0  0  0  0  0  0  0
   -0.0860   -1.6360    0.9337 C   0  0  0  0  0  0  0  0  0  0  0  0
    1.1315   -2.3009    1.1733 C   0  0  0  0  0  0  0  0  0  0  0  0
    2.3058   -1.5888    1.5239 C   0  0  0  0  0  0  0  0  0  0  0  0
    2.2749   -0.1383    1.6767 C   0  0  0  0  0  0  0  0  0  0  0  0
   -1.2771   -2.4227    0.9620 C   0  0  0  0  0  0  0  0  0  0  0  0
   -1.2111   -3.8196    0.7829 C   0  0  0  0  0  0  0  0  0  0  0  0
    0.0703   -4.5162    0.7105 C   0  0  0  0  0  0  0  0  0  0  0  0
    1.2324   -3.7122    1.0750 C   0  0  0  0  0  0  0  0  0  0  0  0
    2.4490   -4.3413    1.2959 C   0  0  0  0  0  0  0  0  0  0  0  0
    3.5998   -3.6451    1.6495 C   0  0  0  0  0  0  0  0  0  0  0  0
    3.4955   -2.2668    1.7660 C   0  0  0  0  0  0  0  0  0  0  0  0
   -2.5528   -1.8941    1.3030 C   0  0  0  0  0  0  0  0  0  0  0  0
   -3.6786   -2.6800    1.2470 C   0  0  0  0  0  0  0  0  0  0  0  0
   -3.6199   -4.0460    0.9189 C   0  0  0  0  0  0  0  0  0  0  0  0
   -2.3760   -4.5967    0.7362 C   0  0  0  0  0  0  0  0  0  0  0  0
   -2.5657   -0.6018    1.7766 O   0  0  0  0  0  0  0  0  0  0  0  0
   -1.8811   -0.3039   -0.7804 O   0  0  0  0  0  0  0  0  0  0  0  0
    3.2152    0.4981    2.1738 O   0  0  0  0  0  0  0  0  0  0  0  0
    0.1583   -5.7191    0.4255 O   0  0  0  0  0  0  0  0  0  0  0  0
   -3.7840   -0.0198    2.1248 C   0  0  0  0  0  0  0  0  0  0  0  0
   -2.8197    0.3204   -1.6012 C   0  0  0  0  0  0  0  0  0  0  0  0
   -4.9146   -4.8422    0.8458 C   0  0  0  0  0  0  0  0  0  0  0  0
   -4.6742   -6.3028    0.4554 C   0  0  0  0  0  0  0  0  0  0  0  0
   -5.6074   -4.8233    2.2165 C   0  0  0  0  0  0  0  0  0  0  0  0
   -5.8378   -4.2139   -0.2081 C   0  0  0  0  0  0  0  0  0  0  0  0
    0.0422    4.1174    0.3008 C   0  0  0  0  0  0  0  0  0  0  0  0
   -1.2643    4.6240    0.9291 C   0  0  0  0  0  0  0  0  0  0  0  0
    1.2090    4.7829    1.0354 C   0  0  0  0  0  0  0  0  0  0  0  0
    0.1034    4.5390   -1.1745 C   0  0  0  0  0  0  0  0  0  0  0  0
    4.8944   -4.4080    1.8916 C   0  0  0  0  0  0  0  0  0  0  0  0
    6.0581   -3.4860    2.2659 C   0  0  0  0  0  0  0  0  0  0  0  0
    5.2762   -5.1688    0.6140 C   0  0  0  0  0  0  0  0  0  0  0  0
    4.6818   -5.4044    3.0400 C   0  0  0  0  0  0  0  0  0  0  0  0
    5.5954   -5.9668    3.2322 H   0  0  0  0  0  0  0  0  0  0  0  0
    3.8883   -6.1076    2.8028 H   0  0  0  0  0  0  0  0  0  0  0  0
    4.4041   -4.8727    3.9480 H   0  0  0  0  0  0  0  0  0  0  0  0
    6.9594   -4.0776    2.4265 H   0  0  0  0  0  0  0  0  0  0  0  0
    5.8420   -2.9404    3.1813 H   0  0  0  0  0  0  0  0  0  0  0  0
    6.2576   -2.7714    1.4709 H   0  0  0  0  0  0  0  0  0  0  0  0
    6.1990   -5.7291    0.7643 H   0  0  0  0  0  0  0  0  0  0  0  0
    5.4249   -4.4690   -0.2061 H   0  0  0  0  0  0  0  0  0  0  0  0
    4.4935   -5.8653    0.3268 H   0  0  0  0  0  0  0  0  0  0  0  0
   -6.7696   -4.7742   -0.2824 H   0  0  0  0  0  0  0  0  0  0  0  0
   -5.3492   -4.2214   -1.1802 H   0  0  0  0  0  0  0  0  0  0  0  0
   -6.0784   -3.1839    0.0421 H   0  0  0  0  0  0  0  0  0  0  0  0
   -6.5187   -5.4204    2.1917 H   0  0  0  0  0  0  0  0  0  0  0  0
   -5.8719   -3.8111    2.5116 H   0  0  0  0  0  0  0  0  0  0  0  0
   -4.9430   -5.2346    2.9736 H   0  0  0  0  0  0  0  0  0  0  0  0
   -5.6269   -6.8273    0.3818 H   0  0  0  0  0  0  0  0  0  0  0  0
   -4.0650   -6.8070    1.2010 H   0  0  0  0  0  0  0  0  0  0  0  0
   -4.1723   -6.3665   -0.5067 H   0  0  0  0  0  0  0  0  0  0  0  0
   -3.5469    1.0001    2.4305 H   0  0  0  0  0  0  0  0  0  0  0  0
   -4.2661   -0.5414    2.9628 H   0  0  0  0  0  0  0  0  0  0  0  0
   -4.4841    0.0138    1.2797 H   0  0  0  0  0  0  0  0  0  0  0  0
   -3.4120   -0.4845   -2.0385 H   0  0  0  0  0  0  0  0  0  0  0  0
   -2.3438    0.8939   -2.4083 H   0  0  0  0  0  0  0  0  0  0  0  0
   -3.4852    0.9882   -1.0384 H   0  0  0  0  0  0  0  0  0  0  0  0
    0.0957    5.6253   -1.2615 H   0  0  0  0  0  0  0  0  0  0  0  0
   -0.7431    4.1467   -1.7324 H   0  0  0  0  0  0  0  0  0  0  0  0
    1.0155    4.1603   -1.6309 H   0  0  0  0  0  0  0  0  0  0  0  0
    1.2161    4.4968    2.0840 H   0  0  0  0  0  0  0  0  0  0  0  0
    1.1138    5.8671    0.9751 H   0  0  0  0  0  0  0  0  0  0  0  0
    2.1590    4.4997    0.5899 H   0  0  0  0  0  0  0  0  0  0  0  0
   -1.3148    5.7116    0.8811 H   0  0  0  0  0  0  0  0  0  0  0  0
   -1.3155    4.3194    1.9723 H   0  0  0  0  0  0  0  0  0  0  0  0
   -2.1324    4.2196    0.4151 H   0  0  0  0  0  0  0  0  0  0  0  0
    2.4577   -5.4166    1.1812 H   0  0  0  0  0  0  0  0  0  0  0  0
    4.3369   -1.6534    2.0506 H   0  0  0  0  0  0  0  0  0  0  0  0
    1.9858    2.4018    1.4072 H   0  0  0  0  0  0  0  0  0  0  0  0
   -1.6919    2.3580   -0.7627 H   0  0  0  0  0  0  0  0  0  0  0  0
   -4.6383   -2.2493    1.4904 H   0  0  0  0  0  0  0  0  0  0  0  0
   -2.2284   -5.6507    0.5628 H   0  0  0  0  0  0  0  0  0  0  0  0
  1  2  4  0  0  0  0
  2  3  4  0  0  0  0
  3  4  4  0  0  0  0
  4  5  4  0  0  0  0
  1  6  4  0  0  0  0
  5  6  4  0  0  0  0
  3  7  1  0  0  0  0
  7  8  4  0  0  0  0
  8  9  4  0  0  0  0
  4 10  1  0  0  0  0
  9 10  1  0  0  0  0
  7 11  1  0  0  0  0
 11 12  4  0  0  0  0
 12 13  1  0  0  0  0
  8 14  4  0  0  0  0
 13 14  1  0  0  0  0
 14 15  4  0  0  0  0
 15 16  4  0  0  0  0
  9 17  4  0  0  0  0
 16 17  4  0  0  0  0
 11 18  4  0  0  0  0
 18 19  4  0  0  0  0
 19 20  4  0  0  0  0
 12 21  4  0  0  0  0
 20 21  4  0  0  0  0
 18 22  1  0  0  0  0
  2 23  1  0  0  0  0
 10 24  2  0  0  0  0
 13 25  2  0  0  0  0
 22 26  1  0  0  0  0
 23 27  1  0  0  0  0
 20 28  1  0  0  0  0
 28 29  1  0  0  0  0
 28 30  1  0  0  0  0
 28 31  1  0  0  0  0
  6 32  1  0  0  0  0
 32 33  1  0  0  0  0
 32 34  1  0  0  0  0
 32 35  1  0  0  0  0
 16 36  1  0  0  0  0
 36 37  1  0  0  0  0
 36 38  1  0  0  0  0
 36 39  1  0  0  0  0
 39 40  1  0  0  0  0
 39 41  1  0  0  0  0
 39 42  1  0  0  0  0
 37 43  1  0  0  0  0
 37 44  1  0  0  0  0
 37 45  1  0  0  0  0
 38 46  1  0  0  0  0
 38 47  1  0  0  0  0
 38 48  1  0  0  0  0
 31 49  1  0  0  0  0
 31 50  1  0  0  0  0
 31 51  1  0  0  0  0
 30 52  1  0  0  0  0
 30 53  1  0  0  0  0
 30 54  1  0  0  0  0
 29 55  1  0  0  0  0
 29 56  1  0  0  0  0
 29 57  1  0  0  0  0
 26 58  1  0  0  0  0
 26 59  1  0  0  0  0
 26 60  1  0  0  0  0
 27 61  1  0  0  0  0
 27 62  1  0  0  0  0
 27 63  1  0  0  0  0
 35 64  1  0  0  0  0
 35 65  1  0  0  0  0
 35 66  1  0  0  0  0
 34 67  1  0  0  0  0
 34 68  1  0  0  0  0
 34 69  1  0  0  0  0
 33 70  1  0  0  0  0
 33 71  1  0  0  0  0
 33 72  1  0  0  0  0
 15 73  1  0  0  0  0
 17 74  1  0  0  0  0
  5 75  1  0  0  0  0
  1 76  1  0  0  0  0
 19 77  1  0  0  0  0
 21 78  1  0  0  0  0
M  CHG  1   7  -1
M  END
