 xtb: 6.7.1 (edcfbbe)
          02282515043D

156164  0     0  0            999 V2000
   -2.2427    2.9423   -1.2359 C   0  0  0  0  0  0  0  0  0  0  0  0
   -2.3138    1.6256   -0.8531 C   0  0  0  0  0  0  0  0  0  0  0  0
   -1.4702    1.1168    0.1724 C   0  0  0  0  0  0  0  0  0  0  0  0
   -0.4310    1.9667    0.6048 C   0  0  0  0  0  0  0  0  0  0  0  0
   -0.3823    3.3052    0.1956 C   0  0  0  0  0  0  0  0  0  0  0  0
   -1.2999    3.8280   -0.6810 C   0  0  0  0  0  0  0  0  0  0  0  0
   -1.5626   -0.2136    0.6718 C   0  0  0  0  0  0  0  0  0  0  0  0
   -0.3921   -0.7790    1.2216 C   0  0  0  0  0  0  0  0  0  0  0  0
    0.6977    0.0301    1.6298 C   0  0  0  0  0  0  0  0  0  0  0  0
    0.6448    1.4762    1.4631 C   0  0  0  0  0  0  0  0  0  0  0  0
   -2.7470   -1.0102    0.7208 C   0  0  0  0  0  0  0  0  0  0  0  0
   -2.6491   -2.4114    0.8400 C   0  0  0  0  0  0  0  0  0  0  0  0
   -1.3535   -3.0694    1.0143 C   0  0  0  0  0  0  0  0  0  0  0  0
   -0.2744   -2.1769    1.4227 C   0  0  0  0  0  0  0  0  0  0  0  0
    0.8572   -2.7069    2.0255 C   0  0  0  0  0  0  0  0  0  0  0  0
    1.8943   -1.9086    2.4982 C   0  0  0  0  0  0  0  0  0  0  0  0
    1.7944   -0.5443    2.2722 C   0  0  0  0  0  0  0  0  0  0  0  0
   -4.0561   -0.4648    0.8176 C   0  0  0  0  0  0  0  0  0  0  0  0
   -5.1612   -1.2822    0.8526 C   0  0  0  0  0  0  0  0  0  0  0  0
   -5.0550   -2.6838    0.8549 C   0  0  0  0  0  0  0  0  0  0  0  0
   -3.7905   -3.2190    0.8800 C   0  0  0  0  0  0  0  0  0  0  0  0
   -4.1359    0.9037    0.9694 O   0  0  0  0  0  0  0  0  0  0  0  0
   -3.1173    0.7001   -1.4838 O   0  0  0  0  0  0  0  0  0  0  0  0
    1.4798    2.2397    1.9730 O   0  0  0  0  0  0  0  0  0  0  0  0
   -1.2120   -4.2917    0.8957 O   0  0  0  0  0  0  0  0  0  0  0  0
   -5.3827    1.4903    1.1740 C   0  0  0  0  0  0  0  0  0  0  0  0
   -4.0288    1.1408   -2.4400 C   0  0  0  0  0  0  0  0  0  0  0  0
   -6.3238   -3.5232    0.8892 C   0  0  0  0  0  0  0  0  0  0  0  0
   -6.0223   -5.0241    0.8883 C   0  0  0  0  0  0  0  0  0  0  0  0
   -7.1201   -3.2014    2.1626 C   0  0  0  0  0  0  0  0  0  0  0  0
   -7.1765   -3.2052   -0.3480 C   0  0  0  0  0  0  0  0  0  0  0  0
   -1.3168    5.2873   -1.1129 C   0  0  0  0  0  0  0  0  0  0  0  0
   -2.6911    5.8937   -0.7929 C   0  0  0  0  0  0  0  0  0  0  0  0
   -0.2540    6.1168   -0.3876 C   0  0  0  0  0  0  0  0  0  0  0  0
   -1.0495    5.3838   -2.6223 C   0  0  0  0  0  0  0  0  0  0  0  0
    3.0811   -2.5444    3.2055 C   0  0  0  0  0  0  0  0  0  0  0  0
    3.8786   -1.5207    4.0193 C   0  0  0  0  0  0  0  0  0  0  0  0
    3.9996   -3.1615    2.1390 C   0  0  0  0  0  0  0  0  0  0  0  0
    2.5970   -3.6412    4.1638 C   0  0  0  0  0  0  0  0  0  0  0  0
    3.4033   -3.9504    4.8268 H   0  0  0  0  0  0  0  0  0  0  0  0
    2.2520   -4.5213    3.6275 H   0  0  0  0  0  0  0  0  0  0  0  0
    1.7782   -3.2741    4.7753 H   0  0  0  0  0  0  0  0  0  0  0  0
    4.6594   -2.0271    4.5848 H   0  0  0  0  0  0  0  0  0  0  0  0
    3.2314   -1.0092    4.7267 H   0  0  0  0  0  0  0  0  0  0  0  0
    4.3556   -0.7831    3.3765 H   0  0  0  0  0  0  0  0  0  0  0  0
    4.8472   -3.6572    2.6106 H   0  0  0  0  0  0  0  0  0  0  0  0
    4.3756   -2.3897    1.4681 H   0  0  0  0  0  0  0  0  0  0  0  0
    3.4549   -3.8931    1.5457 H   0  0  0  0  0  0  0  0  0  0  0  0
   -8.0866   -3.8056   -0.3510 H   0  0  0  0  0  0  0  0  0  0  0  0
   -6.6125   -3.4243   -1.2524 H   0  0  0  0  0  0  0  0  0  0  0  0
   -7.4599   -2.1558   -0.3715 H   0  0  0  0  0  0  0  0  0  0  0  0
   -8.0196   -3.8152    2.2157 H   0  0  0  0  0  0  0  0  0  0  0  0
   -7.4195   -2.1566    2.1889 H   0  0  0  0  0  0  0  0  0  0  0  0
   -6.5104   -3.4025    3.0403 H   0  0  0  0  0  0  0  0  0  0  0  0
   -6.9550   -5.5890    0.8921 H   0  0  0  0  0  0  0  0  0  0  0  0
   -5.4510   -5.3012    1.7699 H   0  0  0  0  0  0  0  0  0  0  0  0
   -5.4557   -5.3035    0.0036 H   0  0  0  0  0  0  0  0  0  0  0  0
   -5.1909    2.5580    1.2908 H   0  0  0  0  0  0  0  0  0  0  0  0
   -5.8724    1.1133    2.0823 H   0  0  0  0  0  0  0  0  0  0  0  0
   -6.0595    1.3415    0.3208 H   0  0  0  0  0  0  0  0  0  0  0  0
   -4.5977    0.2587   -2.7378 H   0  0  0  0  0  0  0  0  0  0  0  0
   -3.5303    1.5589   -3.3265 H   0  0  0  0  0  0  0  0  0  0  0  0
   -4.7197    1.8932   -2.0370 H   0  0  0  0  0  0  0  0  0  0  0  0
   -1.0300    6.4260   -2.9421 H   0  0  0  0  0  0  0  0  0  0  0  0
   -1.8175    4.8668   -3.1922 H   0  0  0  0  0  0  0  0  0  0  0  0
   -0.0893    4.9297   -2.8578 H   0  0  0  0  0  0  0  0  0  0  0  0
   -0.3949    6.0645    0.6887 H   0  0  0  0  0  0  0  0  0  0  0  0
   -0.3252    7.1609   -0.6946 H   0  0  0  0  0  0  0  0  0  0  0  0
    0.7443    5.7589   -0.6256 H   0  0  0  0  0  0  0  0  0  0  0  0
   -2.7239    6.9444   -1.0824 H   0  0  0  0  0  0  0  0  0  0  0  0
   -2.8868    5.8206    0.2747 H   0  0  0  0  0  0  0  0  0  0  0  0
   -3.4850    5.3697   -1.3191 H   0  0  0  0  0  0  0  0  0  0  0  0
    0.8832   -3.7799    2.1402 H   0  0  0  0  0  0  0  0  0  0  0  0
    2.5597    0.1406    2.6045 H   0  0  0  0  0  0  0  0  0  0  0  0
    0.4235    3.8905    0.6095 H   0  0  0  0  0  0  0  0  0  0  0  0
   -2.9081    3.3101   -2.0035 H   0  0  0  0  0  0  0  0  0  0  0  0
   -6.1452   -0.8403    0.9120 H   0  0  0  0  0  0  0  0  0  0  0  0
   -3.6110   -4.2796    0.9535 H   0  0  0  0  0  0  0  0  0  0  0  0
    1.0283    0.3969    5.8674 C   0  0  0  0  0  0  0  0  0  0  0  0
    0.7670   -0.9345    6.1158 C   0  0  0  0  0  0  0  0  0  0  0  0
    1.4900   -1.6526    7.1078 C   0  0  0  0  0  0  0  0  0  0  0  0
    2.5751   -0.9734    7.7024 C   0  0  0  0  0  0  0  0  0  0  0  0
    2.8123    0.3779    7.4288 C   0  0  0  0  0  0  0  0  0  0  0  0
    2.0429    1.0902    6.5369 C   0  0  0  0  0  0  0  0  0  0  0  0
    1.2703   -3.0382    7.3987 C   0  0  0  0  0  0  0  0  0  0  0  0
    2.3515   -3.7710    7.9156 C   0  0  0  0  0  0  0  0  0  0  0  0
    3.4734   -3.1236    8.4949 C   0  0  0  0  0  0  0  0  0  0  0  0
    3.5369   -1.6679    8.5521 C   0  0  0  0  0  0  0  0  0  0  0  0
    0.0681   -3.7587    7.1262 C   0  0  0  0  0  0  0  0  0  0  0  0
    0.0977   -5.1539    6.9232 C   0  0  0  0  0  0  0  0  0  0  0  0
    1.2794   -5.9382    7.2594 C   0  0  0  0  0  0  0  0  0  0  0  0
    2.3647   -5.1917    7.8886 C   0  0  0  0  0  0  0  0  0  0  0  0
    3.4426   -5.8869    8.4156 C   0  0  0  0  0  0  0  0  0  0  0  0
    4.5304   -5.2534    9.0074 C   0  0  0  0  0  0  0  0  0  0  0  0
    4.5161   -3.8662    9.0359 C   0  0  0  0  0  0  0  0  0  0  0  0
   -1.2191   -3.1579    7.1249 C   0  0  0  0  0  0  0  0  0  0  0  0
   -2.3084   -3.8283    6.6196 C   0  0  0  0  0  0  0  0  0  0  0  0
   -2.2100   -5.1554    6.1725 C   0  0  0  0  0  0  0  0  0  0  0  0
   -1.0299   -5.8162    6.4246 C   0  0  0  0  0  0  0  0  0  0  0  0
   -1.3038   -1.9226    7.7319 O   0  0  0  0  0  0  0  0  0  0  0  0
   -0.1231   -1.6539    5.3621 O   0  0  0  0  0  0  0  0  0  0  0  0
    4.3912   -1.0681    9.2249 O   0  0  0  0  0  0  0  0  0  0  0  0
    1.3389   -7.1657    7.0816 O   0  0  0  0  0  0  0  0  0  0  0  0
   -2.5590   -1.3299    7.8665 C   0  0  0  0  0  0  0  0  0  0  0  0
   -1.0360   -0.9692    4.5507 C   0  0  0  0  0  0  0  0  0  0  0  0
   -3.3585   -5.8720    5.4769 C   0  0  0  0  0  0  0  0  0  0  0  0
   -2.8493   -6.4411    4.1452 C   0  0  0  0  0  0  0  0  0  0  0  0
   -3.8586   -7.0168    6.3707 C   0  0  0  0  0  0  0  0  0  0  0  0
   -4.5395   -4.9473    5.1638 C   0  0  0  0  0  0  0  0  0  0  0  0
    2.3559    2.5513    6.2472 C   0  0  0  0  0  0  0  0  0  0  0  0
    2.3556    3.3355    7.5683 C   0  0  0  0  0  0  0  0  0  0  0  0
    3.7431    2.6353    5.5962 C   0  0  0  0  0  0  0  0  0  0  0  0
    1.3483    3.2086    5.2999 C   0  0  0  0  0  0  0  0  0  0  0  0
    5.6680   -6.0909    9.5757 C   0  0  0  0  0  0  0  0  0  0  0  0
    6.7742   -5.2349   10.1990 C   0  0  0  0  0  0  0  0  0  0  0  0
    6.2867   -6.9290    8.4479 C   0  0  0  0  0  0  0  0  0  0  0  0
    5.1134   -7.0228   10.6626 C   0  0  0  0  0  0  0  0  0  0  0  0
    5.9084   -7.6411   11.0814 H   0  0  0  0  0  0  0  0  0  0  0  0
    4.3457   -7.6761   10.2575 H   0  0  0  0  0  0  0  0  0  0  0  0
    4.6703   -6.4361   11.4653 H   0  0  0  0  0  0  0  0  0  0  0  0
    7.5599   -5.8785   10.5968 H   0  0  0  0  0  0  0  0  0  0  0  0
    6.3830   -4.6304   11.0139 H   0  0  0  0  0  0  0  0  0  0  0  0
    7.2175   -4.5755    9.4568 H   0  0  0  0  0  0  0  0  0  0  0  0
    7.1021   -7.5451    8.8289 H   0  0  0  0  0  0  0  0  0  0  0  0
    6.6788   -6.2752    7.6712 H   0  0  0  0  0  0  0  0  0  0  0  0
    5.5432   -7.5801    7.9968 H   0  0  0  0  0  0  0  0  0  0  0  0
   -5.2994   -5.5005    4.6112 H   0  0  0  0  0  0  0  0  0  0  0  0
   -4.2146   -4.1100    4.5498 H   0  0  0  0  0  0  0  0  0  0  0  0
   -5.0014   -4.5667    6.0736 H   0  0  0  0  0  0  0  0  0  0  0  0
   -4.6662   -7.5618    5.8813 H   0  0  0  0  0  0  0  0  0  0  0  0
   -4.2290   -6.6227    7.3162 H   0  0  0  0  0  0  0  0  0  0  0  0
   -3.0524   -7.7123    6.5865 H   0  0  0  0  0  0  0  0  0  0  0  0
   -3.6514   -6.9613    3.6206 H   0  0  0  0  0  0  0  0  0  0  0  0
   -2.0349   -7.1407    4.3069 H   0  0  0  0  0  0  0  0  0  0  0  0
   -2.4808   -5.6398    3.5088 H   0  0  0  0  0  0  0  0  0  0  0  0
   -2.3880   -0.3888    8.3915 H   0  0  0  0  0  0  0  0  0  0  0  0
   -3.2428   -1.9538    8.4600 H   0  0  0  0  0  0  0  0  0  0  0  0
   -3.0284   -1.1170    6.8983 H   0  0  0  0  0  0  0  0  0  0  0  0
   -1.6947   -1.7335    4.1374 H   0  0  0  0  0  0  0  0  0  0  0  0
   -0.5480   -0.4452    3.7262 H   0  0  0  0  0  0  0  0  0  0  0  0
   -1.6263   -0.2479    5.1297 H   0  0  0  0  0  0  0  0  0  0  0  0
    1.5813    4.2693    5.2024 H   0  0  0  0  0  0  0  0  0  0  0  0
    0.3339    3.1205    5.6850 H   0  0  0  0  0  0  0  0  0  0  0  0
    1.3940    2.7705    4.3053 H   0  0  0  0  0  0  0  0  0  0  0  0
    4.4981    2.1703    6.2253 H   0  0  0  0  0  0  0  0  0  0  0  0
    4.0214    3.6750    5.4240 H   0  0  0  0  0  0  0  0  0  0  0  0
    3.7272    2.1210    4.6386 H   0  0  0  0  0  0  0  0  0  0  0  0
    2.5892    4.3854    7.3888 H   0  0  0  0  0  0  0  0  0  0  0  0
    3.0890    2.9340    8.2619 H   0  0  0  0  0  0  0  0  0  0  0  0
    1.3753    3.2746    8.0383 H   0  0  0  0  0  0  0  0  0  0  0  0
    3.3964   -6.9651    8.3395 H   0  0  0  0  0  0  0  0  0  0  0  0
    5.3207   -3.2966    9.4766 H   0  0  0  0  0  0  0  0  0  0  0  0
    3.6576    0.8225    7.9343 H   0  0  0  0  0  0  0  0  0  0  0  0
    0.4718    0.8993    5.0955 H   0  0  0  0  0  0  0  0  0  0  0  0
   -3.2602   -3.3253    6.5696 H   0  0  0  0  0  0  0  0  0  0  0  0
   -0.9151   -6.8731    6.2335 H   0  0  0  0  0  0  0  0  0  0  0  0
  1  2  4  0  0  0  0
  2  3  4  0  0  0  0
  3  4  4  0  0  0  0
  4  5  4  0  0  0  0
  1  6  4  0  0  0  0
  5  6  4  0  0  0  0
  3  7  4  0  0  0  0
  7  8  4  0  0  0  0
  8  9  4  0  0  0  0
  4 10  1  0  0  0  0
  9 10  1  0  0  0  0
  7 11  1  0  0  0  0
 11 12  4  0  0  0  0
 12 13  1  0  0  0  0
  8 14  4  0  0  0  0
 13 14  1  0  0  0  0
 14 15  4  0  0  0  0
 15 16  4  0  0  0  0
  9 17  4  0  0  0  0
 16 17  4  0  0  0  0
 11 18  4  0  0  0  0
 18 19  4  0  0  0  0
 19 20  4  0  0  0  0
 12 21  4  0  0  0  0
 20 21  4  0  0  0  0
 18 22  1  0  0  0  0
  2 23  1  0  0  0  0
 10 24  2  0  0  0  0
 13 25  2  0  0  0  0
 22 26  1  0  0  0  0
 23 27  1  0  0  0  0
 20 28  1  0  0  0  0
 28 29  1  0  0  0  0
 28 30  1  0  0  0  0
 28 31  1  0  0  0  0
  6 32  1  0  0  0  0
 32 33  1  0  0  0  0
 32 34  1  0  0  0  0
 32 35  1  0  0  0  0
 16 36  1  0  0  0  0
 36 37  1  0  0  0  0
 36 38  1  0  0  0  0
 36 39  1  0  0  0  0
 39 40  1  0  0  0  0
 39 41  1  0  0  0  0
 39 42  1  0  0  0  0
 37 43  1  0  0  0  0
 37 44  1  0  0  0  0
 37 45  1  0  0  0  0
 38 46  1  0  0  0  0
 38 47  1  0  0  0  0
 38 48  1  0  0  0  0
 31 49  1  0  0  0  0
 31 50  1  0  0  0  0
 31 51  1  0  0  0  0
 30 52  1  0  0  0  0
 30 53  1  0  0  0  0
 30 54  1  0  0  0  0
 29 55  1  0  0  0  0
 29 56  1  0  0  0  0
 29 57  1  0  0  0  0
 26 58  1  0  0  0  0
 26 59  1  0  0  0  0
 26 60  1  0  0  0  0
 27 61  1  0  0  0  0
 27 62  1  0  0  0  0
 27 63  1  0  0  0  0
 35 64  1  0  0  0  0
 35 65  1  0  0  0  0
 35 66  1  0  0  0  0
 34 67  1  0  0  0  0
 34 68  1  0  0  0  0
 34 69  1  0  0  0  0
 33 70  1  0  0  0  0
 33 71  1  0  0  0  0
 33 72  1  0  0  0  0
 15 73  1  0  0  0  0
 17 74  1  0  0  0  0
  5 75  1  0  0  0  0
  1 76  1  0  0  0  0
 19 77  1  0  0  0  0
 21 78  1  0  0  0  0
 79 80  4  0  0  0  0
 80 81  4  0  0  0  0
 81 82  4  0  0  0  0
 82 83  4  0  0  0  0
 79 84  4  0  0  0  0
 83 84  4  0  0  0  0
 81 85  1  0  0  0  0
 85 86  4  0  0  0  0
 86 87  4  0  0  0  0
 82 88  1  0  0  0  0
 87 88  1  0  0  0  0
 85 89  1  0  0  0  0
 89 90  4  0  0  0  0
 90 91  1  0  0  0  0
 86 92  4  0  0  0  0
 91 92  1  0  0  0  0
 92 93  4  0  0  0  0
 93 94  4  0  0  0  0
 87 95  4  0  0  0  0
 94 95  4  0  0  0  0
 89 96  4  0  0  0  0
 96 97  4  0  0  0  0
 97 98  4  0  0  0  0
 90 99  4  0  0  0  0
 98 99  4  0  0  0  0
 96100  1  0  0  0  0
 80101  1  0  0  0  0
 88102  2  0  0  0  0
 91103  2  0  0  0  0
100104  1  0  0  0  0
101105  1  0  0  0  0
 98106  1  0  0  0  0
106107  1  0  0  0  0
106108  1  0  0  0  0
106109  1  0  0  0  0
 84110  1  0  0  0  0
110111  1  0  0  0  0
110112  1  0  0  0  0
110113  1  0  0  0  0
 94114  1  0  0  0  0
114115  1  0  0  0  0
114116  1  0  0  0  0
114117  1  0  0  0  0
117118  1  0  0  0  0
117119  1  0  0  0  0
117120  1  0  0  0  0
115121  1  0  0  0  0
115122  1  0  0  0  0
115123  1  0  0  0  0
116124  1  0  0  0  0
116125  1  0  0  0  0
116126  1  0  0  0  0
109127  1  0  0  0  0
109128  1  0  0  0  0
109129  1  0  0  0  0
108130  1  0  0  0  0
108131  1  0  0  0  0
108132  1  0  0  0  0
107133  1  0  0  0  0
107134  1  0  0  0  0
107135  1  0  0  0  0
104136  1  0  0  0  0
104137  1  0  0  0  0
104138  1  0  0  0  0
105139  1  0  0  0  0
105140  1  0  0  0  0
105141  1  0  0  0  0
113142  1  0  0  0  0
113143  1  0  0  0  0
113144  1  0  0  0  0
112145  1  0  0  0  0
112146  1  0  0  0  0
112147  1  0  0  0  0
111148  1  0  0  0  0
111149  1  0  0  0  0
111150  1  0  0  0  0
 93151  1  0  0  0  0
 95152  1  0  0  0  0
 83153  1  0  0  0  0
 79154  1  0  0  0  0
 97155  1  0  0  0  0
 99156  1  0  0  0  0
M  CHG  1   7  -1
M  CHG  1  85  -1
M  END
