 energy: -208.998883664205 gnorm: 0.000091759233 xtb: 6.7.1 (edcfbbe)
          03172516543D

141152  0     0  0            999 V2000
   -2.1509   -3.0651    1.6154 C   0  0  0  0  0  0  0  0  0  0  0  0
   -2.2228   -1.7371    1.1785 C   0  0  0  0  0  0  0  0  0  0  0  0
   -2.9173   -1.4003   -0.0160 C   0  0  0  0  0  0  0  0  0  0  0  0
   -3.3826   -2.5107   -0.7747 C   0  0  0  0  0  0  0  0  0  0  0  0
   -3.2124   -3.8134   -0.3569 C   0  0  0  0  0  0  0  0  0  0  0  0
   -2.6276   -4.1262    0.8734 C   0  0  0  0  0  0  0  0  0  0  0  0
   -3.2882   -0.0706   -0.3891 C   0  0  0  0  0  0  0  0  0  0  0  0
   -4.4175    0.0269   -1.2884 C   0  0  0  0  0  0  0  0  0  0  0  0
   -4.7779   -1.0282   -2.1467 C   0  0  0  0  0  0  0  0  0  0  0  0
   -4.1014   -2.3254   -2.0451 C   0  0  0  0  0  0  0  0  0  0  0  0
   -2.7367    1.1770    0.0692 C   0  0  0  0  0  0  0  0  0  0  0  0
   -3.5785    2.3256    0.0638 C   0  0  0  0  0  0  0  0  0  0  0  0
   -4.9620    2.2879   -0.4378 C   0  0  0  0  0  0  0  0  0  0  0  0
   -5.2287    1.1706   -1.3485 C   0  0  0  0  0  0  0  0  0  0  0  0
   -6.3032    1.2640   -2.2254 C   0  0  0  0  0  0  0  0  0  0  0  0
   -6.6023    0.2514   -3.1267 C   0  0  0  0  0  0  0  0  0  0  0  0
   -5.8144   -0.8939   -3.0588 C   0  0  0  0  0  0  0  0  0  0  0  0
   -1.3778    1.4300    0.4239 C   0  0  0  0  0  0  0  0  0  0  0  0
   -0.9559    2.7320    0.7374 C   0  0  0  0  0  0  0  0  0  0  0  0
   -1.8041    3.8199    0.7737 C   0  0  0  0  0  0  0  0  0  0  0  0
   -3.1373    3.5747    0.4461 C   0  0  0  0  0  0  0  0  0  0  0  0
   -1.6046   -0.8241    1.9274 O   0  0  0  0  0  0  0  0  0  0  0  0
   -0.4126    0.5085    0.3718 O   0  0  0  0  0  0  0  0  0  0  0  0
   -0.2570   -0.4973    1.4243 B   0  0  0  0  0  0  0  0  0  0  0  0
    1.7760   -3.4071    1.3917 C   0  0  0  0  0  0  0  0  0  0  0  0
    1.6158   -2.0591    1.0383 C   0  0  0  0  0  0  0  0  0  0  0  0
    2.7530   -1.2649    0.7151 C   0  0  0  0  0  0  0  0  0  0  0  0
    3.9355   -2.0252    0.4803 C   0  0  0  0  0  0  0  0  0  0  0  0
    4.0585   -3.3520    0.8558 C   0  0  0  0  0  0  0  0  0  0  0  0
    2.9914   -4.0628    1.3961 C   0  0  0  0  0  0  0  0  0  0  0  0
    2.8383    0.1705    0.5625 C   0  0  0  0  0  0  0  0  0  0  0  0
    3.8295    0.6457   -0.3784 C   0  0  0  0  0  0  0  0  0  0  0  0
    4.8212   -0.1883   -0.9171 C   0  0  0  0  0  0  0  0  0  0  0  0
    2.2473    1.1615    1.3931 C   0  0  0  0  0  0  0  0  0  0  0  0
    2.6708    2.5207    1.2652 C   0  0  0  0  0  0  0  0  0  0  0  0
    3.1708    3.0120   -0.0275 C   0  0  0  0  0  0  0  0  0  0  0  0
    3.8651    1.9877   -0.8064 C   0  0  0  0  0  0  0  0  0  0  0  0
    4.6839    2.3882   -1.8526 C   0  0  0  0  0  0  0  0  0  0  0  0
    5.5751    1.5173   -2.4728 C   0  0  0  0  0  0  0  0  0  0  0  0
    5.6697    0.2424   -1.9307 C   0  0  0  0  0  0  0  0  0  0  0  0
    1.3836    0.9463    2.5170 C   0  0  0  0  0  0  0  0  0  0  0  0
    1.4275    1.8323    3.6019 C   0  0  0  0  0  0  0  0  0  0  0  0
    2.0942    3.0420    3.5599 C   0  0  0  0  0  0  0  0  0  0  0  0
    2.6138    3.4143    2.3135 C   0  0  0  0  0  0  0  0  0  0  0  0
    0.5150   -0.0351    2.5991 O   0  0  0  0  0  0  0  0  0  0  0  0
    0.3477   -1.6917    0.9041 O   0  0  0  0  0  0  0  0  0  0  0  0
    5.0678   -1.4901   -0.2886 C   0  0  0  0  0  0  0  0  0  0  0  0
    3.0704    4.1804   -0.3659 O   0  0  0  0  0  0  0  0  0  0  0  0
    6.1171   -2.0958   -0.4385 O   0  0  0  0  0  0  0  0  0  0  0  0
   -4.2065   -3.2023   -2.8863 O   0  0  0  0  0  0  0  0  0  0  0  0
   -5.7859    3.1526   -0.1910 O   0  0  0  0  0  0  0  0  0  0  0  0
   -2.5325   -5.5747    1.3094 C   0  0  0  0  0  0  0  0  0  0  0  0
   -1.8007   -5.7395    2.6430 C   0  0  0  0  0  0  0  0  0  0  0  0
   -1.7819   -6.3691    0.2302 C   0  0  0  0  0  0  0  0  0  0  0  0
   -3.9562   -6.1294    1.4648 C   0  0  0  0  0  0  0  0  0  0  0  0
   -1.3728    5.2324    1.1104 C   0  0  0  0  0  0  0  0  0  0  0  0
   -1.6800    6.1425   -0.0877 C   0  0  0  0  0  0  0  0  0  0  0  0
   -2.1652    5.7028    2.3394 C   0  0  0  0  0  0  0  0  0  0  0  0
    0.1191    5.3330    1.4224 C   0  0  0  0  0  0  0  0  0  0  0  0
   -7.7323    0.3356   -4.1344 C   0  0  0  0  0  0  0  0  0  0  0  0
   -7.1461    0.1814   -5.5451 C   0  0  0  0  0  0  0  0  0  0  0  0
   -8.4806    1.6685   -4.0611 C   0  0  0  0  0  0  0  0  0  0  0  0
   -8.7285   -0.7995   -3.8582 C   0  0  0  0  0  0  0  0  0  0  0  0
    3.1118   -5.4835    1.9122 C   0  0  0  0  0  0  0  0  0  0  0  0
    2.2409   -6.4099    1.0536 C   0  0  0  0  0  0  0  0  0  0  0  0
    2.6281   -5.5170    3.3690 C   0  0  0  0  0  0  0  0  0  0  0  0
    4.5545   -5.9930    1.8703 C   0  0  0  0  0  0  0  0  0  0  0  0
    2.1910    3.9135    4.7965 C   0  0  0  0  0  0  0  0  0  0  0  0
    2.9452    3.1153    5.8711 C   0  0  0  0  0  0  0  0  0  0  0  0
    2.9519    5.2149    4.5316 C   0  0  0  0  0  0  0  0  0  0  0  0
    0.7884    4.2660    5.3111 C   0  0  0  0  0  0  0  0  0  0  0  0
    6.4317    2.0007   -3.6265 C   0  0  0  0  0  0  0  0  0  0  0  0
    7.3367    3.1374   -3.1298 C   0  0  0  0  0  0  0  0  0  0  0  0
    7.3134    0.8896   -4.2011 C   0  0  0  0  0  0  0  0  0  0  0  0
    5.5111    2.5180   -4.7409 C   0  0  0  0  0  0  0  0  0  0  0  0
    7.8719    1.2738   -5.0520 H   0  0  0  0  0  0  0  0  0  0  0  0
    6.7110    0.0515   -4.5434 H   0  0  0  0  0  0  0  0  0  0  0  0
    8.0294    0.5352   -3.4637 H   0  0  0  0  0  0  0  0  0  0  0  0
    7.9736    3.4854   -3.9398 H   0  0  0  0  0  0  0  0  0  0  0  0
    7.9709    2.7869   -2.3182 H   0  0  0  0  0  0  0  0  0  0  0  0
    6.7529    3.9794   -2.7688 H   0  0  0  0  0  0  0  0  0  0  0  0
    6.1056    2.8673   -5.5820 H   0  0  0  0  0  0  0  0  0  0  0  0
    4.8930    3.3417   -4.3953 H   0  0  0  0  0  0  0  0  0  0  0  0
    4.8565    1.7216   -5.0888 H   0  0  0  0  0  0  0  0  0  0  0  0
    3.0283    5.7836    5.4558 H   0  0  0  0  0  0  0  0  0  0  0  0
    2.4341    5.8308    3.8006 H   0  0  0  0  0  0  0  0  0  0  0  0
    3.9593    5.0126    4.1762 H   0  0  0  0  0  0  0  0  0  0  0  0
    0.8687    4.8597    6.2189 H   0  0  0  0  0  0  0  0  0  0  0  0
    0.2111    3.3744    5.5375 H   0  0  0  0  0  0  0  0  0  0  0  0
    0.2459    4.8481    4.5700 H   0  0  0  0  0  0  0  0  0  0  0  0
    3.0487    3.7120    6.7745 H   0  0  0  0  0  0  0  0  0  0  0  0
    3.9392    2.8506    5.5167 H   0  0  0  0  0  0  0  0  0  0  0  0
    2.4168    2.2000    6.1223 H   0  0  0  0  0  0  0  0  0  0  0  0
   -1.8552    6.7071    2.6198 H   0  0  0  0  0  0  0  0  0  0  0  0
   -1.9858    5.0360    3.1804 H   0  0  0  0  0  0  0  0  0  0  0  0
   -3.2329    5.7192    2.1409 H   0  0  0  0  0  0  0  0  0  0  0  0
   -1.3689    7.1609    0.1340 H   0  0  0  0  0  0  0  0  0  0  0  0
   -2.7406    6.1531   -0.3216 H   0  0  0  0  0  0  0  0  0  0  0  0
   -1.1366    5.8001   -0.9655 H   0  0  0  0  0  0  0  0  0  0  0  0
    0.3682    6.3619    1.6751 H   0  0  0  0  0  0  0  0  0  0  0  0
    0.7257    5.0433    0.5682 H   0  0  0  0  0  0  0  0  0  0  0  0
    0.3755    4.7005    2.2676 H   0  0  0  0  0  0  0  0  0  0  0  0
   -9.5561   -0.7465   -4.5619 H   0  0  0  0  0  0  0  0  0  0  0  0
   -9.1274   -0.7137   -2.8496 H   0  0  0  0  0  0  0  0  0  0  0  0
   -8.2579   -1.7735   -3.9585 H   0  0  0  0  0  0  0  0  0  0  0  0
   -9.2699    1.6822   -4.8097 H   0  0  0  0  0  0  0  0  0  0  0  0
   -7.8131    2.5034   -4.2610 H   0  0  0  0  0  0  0  0  0  0  0  0
   -8.9407    1.8065   -3.0857 H   0  0  0  0  0  0  0  0  0  0  0  0
   -7.9397    0.2442   -6.2862 H   0  0  0  0  0  0  0  0  0  0  0  0
   -6.6436   -0.7743   -5.6636 H   0  0  0  0  0  0  0  0  0  0  0  0
   -6.4264    0.9731   -5.7426 H   0  0  0  0  0  0  0  0  0  0  0  0
    2.3466   -7.4385    1.3911 H   0  0  0  0  0  0  0  0  0  0  0  0
    2.5454   -6.3553    0.0108 H   0  0  0  0  0  0  0  0  0  0  0  0
    1.1927   -6.1358    1.1195 H   0  0  0  0  0  0  0  0  0  0  0  0
    2.6903   -6.5302    3.7595 H   0  0  0  0  0  0  0  0  0  0  0  0
    1.5988   -5.1806    3.4535 H   0  0  0  0  0  0  0  0  0  0  0  0
    3.2485   -4.8704    3.9857 H   0  0  0  0  0  0  0  0  0  0  0  0
    4.5993   -6.9907    2.3020 H   0  0  0  0  0  0  0  0  0  0  0  0
    5.2134   -5.3462    2.4443 H   0  0  0  0  0  0  0  0  0  0  0  0
    4.9194   -6.0536    0.8481 H   0  0  0  0  0  0  0  0  0  0  0  0
   -1.7577   -6.7940    2.9076 H   0  0  0  0  0  0  0  0  0  0  0  0
   -2.3181   -5.2126    3.4409 H   0  0  0  0  0  0  0  0  0  0  0  0
   -0.7811   -5.3679    2.5785 H   0  0  0  0  0  0  0  0  0  0  0  0
   -3.9169   -7.1757    1.7595 H   0  0  0  0  0  0  0  0  0  0  0  0
   -4.5112   -6.0559    0.5339 H   0  0  0  0  0  0  0  0  0  0  0  0
   -4.4958   -5.5743    2.2292 H   0  0  0  0  0  0  0  0  0  0  0  0
   -1.6008   -7.3857    0.5724 H   0  0  0  0  0  0  0  0  0  0  0  0
   -0.8258   -5.8995    0.0100 H   0  0  0  0  0  0  0  0  0  0  0  0
   -2.3520   -6.4194   -0.6926 H   0  0  0  0  0  0  0  0  0  0  0  0
   -3.5744   -4.5859   -1.0183 H   0  0  0  0  0  0  0  0  0  0  0  0
   -1.6485   -3.2070    2.5583 H   0  0  0  0  0  0  0  0  0  0  0  0
   -5.9979   -1.7408   -3.7033 H   0  0  0  0  0  0  0  0  0  0  0  0
   -6.8856    2.1700   -2.1718 H   0  0  0  0  0  0  0  0  0  0  0  0
   -3.8695    4.3680    0.4388 H   0  0  0  0  0  0  0  0  0  0  0  0
    0.0951    2.8429    0.9467 H   0  0  0  0  0  0  0  0  0  0  0  0
    0.8538    1.5342    4.4653 H   0  0  0  0  0  0  0  0  0  0  0  0
    2.9968    4.4051    2.1319 H   0  0  0  0  0  0  0  0  0  0  0  0
    0.8627   -3.9148    1.6592 H   0  0  0  0  0  0  0  0  0  0  0  0
    5.0192   -3.8088    0.6802 H   0  0  0  0  0  0  0  0  0  0  0  0
    4.6255    3.4287   -2.1364 H   0  0  0  0  0  0  0  0  0  0  0  0
    6.4123   -0.4644   -2.2649 H   0  0  0  0  0  0  0  0  0  0  0  0
  1  2  2  0  0  0  0
  1131  1  0  0  0  0
  2  3  1  0  0  0  0
  2 22  1  0  0  0  0
  3  4  2  0  0  0  0
  4  5  1  0  0  0  0
  5  6  2  0  0  0  0
  5130  1  0  0  0  0
  6 52  1  0  0  0  0
  6  1  1  0  0  0  0
  7  3  1  0  0  0  0
  7  8  1  0  0  0  0
  7 11  1  0  0  0  0
  8  9  2  0  0  0  0
  9 10  1  0  0  0  0
 10  4  1  0  0  0  0
 10 50  2  0  0  0  0
 11 12  2  0  0  0  0
 11 18  1  0  0  0  0
 13 14  1  0  0  0  0
 13 12  1  0  0  0  0
 13 51  2  0  0  0  0
 14  8  1  0  0  0  0
 14 15  2  0  0  0  0
 15 16  1  0  0  0  0
 15133  1  0  0  0  0
 16 60  1  0  0  0  0
 16 17  2  0  0  0  0
 17  9  1  0  0  0  0
 17132  1  0  0  0  0
 18 19  2  0  0  0  0
 18 23  1  0  0  0  0
 19 20  1  0  0  0  0
 19135  1  0  0  0  0
 20 56  1  0  0  0  0
 20 21  2  0  0  0  0
 21 12  1  0  0  0  0
 21134  1  0  0  0  0
 24 23  1  0  0  0  0
 24 22  1  0  0  0  0
 25 26  2  0  0  0  0
 25138  1  0  0  0  0
 26 27  1  0  0  0  0
 26 46  1  0  0  0  0
 27 28  2  0  0  0  0
 28 29  1  0  0  0  0
 28 47  1  0  0  0  0
 29 30  2  0  0  0  0
 29139  1  0  0  0  0
 30 64  1  0  0  0  0
 30 25  1  0  0  0  0
 31 27  1  0  0  0  0
 31 32  1  0  0  0  0
 32 33  2  0  0  0  0
 34 35  2  0  0  0  0
 34 41  1  0  0  0  0
 34 31  1  0  0  0  0
 36 37  1  0  0  0  0
 36 35  1  0  0  0  0
 36 48  2  0  0  0  0
 37 32  1  0  0  0  0
 37 38  2  0  0  0  0
 38 39  1  0  0  0  0
 38140  1  0  0  0  0
 39 72  1  0  0  0  0
 39 40  2  0  0  0  0
 40 33  1  0  0  0  0
 40141  1  0  0  0  0
 41 42  2  0  0  0  0
 41 45  1  0  0  0  0
 42 43  1  0  0  0  0
 42136  1  0  0  0  0
 43 68  1  0  0  0  0
 43 44  2  0  0  0  0
 44 35  1  0  0  0  0
 44137  1  0  0  0  0
 45 24  1  0  0  0  0
 46 24  1  0  0  0  0
 47 33  1  0  0  0  0
 47 49  2  0  0  0  0
 52 53  1  0  0  0  0
 52 54  1  0  0  0  0
 52 55  1  0  0  0  0
 53121  1  0  0  0  0
 53122  1  0  0  0  0
 53123  1  0  0  0  0
 54127  1  0  0  0  0
 54128  1  0  0  0  0
 54129  1  0  0  0  0
 55124  1  0  0  0  0
 55125  1  0  0  0  0
 55126  1  0  0  0  0
 56 57  1  0  0  0  0
 56 58  1  0  0  0  0
 56 59  1  0  0  0  0
 57 97  1  0  0  0  0
 57 98  1  0  0  0  0
 57 99  1  0  0  0  0
 58 94  1  0  0  0  0
 58 95  1  0  0  0  0
 58 96  1  0  0  0  0
 59100  1  0  0  0  0
 59101  1  0  0  0  0
 59102  1  0  0  0  0
 60 61  1  0  0  0  0
 60 62  1  0  0  0  0
 60 63  1  0  0  0  0
 61109  1  0  0  0  0
 61110  1  0  0  0  0
 61111  1  0  0  0  0
 62106  1  0  0  0  0
 62107  1  0  0  0  0
 62108  1  0  0  0  0
 63103  1  0  0  0  0
 63104  1  0  0  0  0
 63105  1  0  0  0  0
 64 65  1  0  0  0  0
 64 66  1  0  0  0  0
 64 67  1  0  0  0  0
 65112  1  0  0  0  0
 65113  1  0  0  0  0
 65114  1  0  0  0  0
 66115  1  0  0  0  0
 66116  1  0  0  0  0
 66117  1  0  0  0  0
 67118  1  0  0  0  0
 67119  1  0  0  0  0
 67120  1  0  0  0  0
 68 69  1  0  0  0  0
 68 70  1  0  0  0  0
 68 71  1  0  0  0  0
 69 91  1  0  0  0  0
 69 92  1  0  0  0  0
 69 93  1  0  0  0  0
 70 85  1  0  0  0  0
 70 86  1  0  0  0  0
 70 87  1  0  0  0  0
 71 88  1  0  0  0  0
 71 89  1  0  0  0  0
 71 90  1  0  0  0  0
 72 73  1  0  0  0  0
 72 74  1  0  0  0  0
 72 75  1  0  0  0  0
 73 79  1  0  0  0  0
 73 80  1  0  0  0  0
 73 81  1  0  0  0  0
 74 76  1  0  0  0  0
 74 77  1  0  0  0  0
 74 78  1  0  0  0  0
 75 82  1  0  0  0  0
 75 83  1  0  0  0  0
 75 84  1  0  0  0  0
M  CHG  1   1   0
M  END
