 energy: -418.597160624558 gnorm: 0.000191740052 xtb: 6.7.1 (edcfbbe)
          03172517143D

282304  0     0  0            999 V2000
   -1.3956   -2.3895    3.0155 C   0  0  0  0  0  0  0  0  0  0  0  0
   -1.7983   -1.6037    1.9356 C   0  0  0  0  0  0  0  0  0  0  0  0
   -2.7128   -2.0980    0.9629 C   0  0  0  0  0  0  0  0  0  0  0  0
   -3.1266   -3.4445    1.1665 C   0  0  0  0  0  0  0  0  0  0  0  0
   -2.6497   -4.2146    2.2165 C   0  0  0  0  0  0  0  0  0  0  0  0
   -1.7952   -3.7013    3.1854 C   0  0  0  0  0  0  0  0  0  0  0  0
   -3.3160   -1.3330   -0.0974 C   0  0  0  0  0  0  0  0  0  0  0  0
   -4.5660   -1.8152   -0.6055 C   0  0  0  0  0  0  0  0  0  0  0  0
   -4.9657   -3.1571   -0.4412 C   0  0  0  0  0  0  0  0  0  0  0  0
   -4.1185   -4.0893    0.3051 C   0  0  0  0  0  0  0  0  0  0  0  0
   -2.8356   -0.1113   -0.6836 C   0  0  0  0  0  0  0  0  0  0  0  0
   -3.7346    0.7720   -1.3329 C   0  0  0  0  0  0  0  0  0  0  0  0
   -5.1415    0.4285   -1.5335 C   0  0  0  0  0  0  0  0  0  0  0  0
   -5.4625   -0.9810   -1.3040 C   0  0  0  0  0  0  0  0  0  0  0  0
   -6.6761   -1.4641   -1.7822 C   0  0  0  0  0  0  0  0  0  0  0  0
   -7.0496   -2.7915   -1.6417 C   0  0  0  0  0  0  0  0  0  0  0  0
   -6.1601   -3.6222   -0.9692 C   0  0  0  0  0  0  0  0  0  0  0  0
   -1.4684    0.2604   -0.7435 C   0  0  0  0  0  0  0  0  0  0  0  0
   -1.0835    1.4834   -1.2804 C   0  0  0  0  0  0  0  0  0  0  0  0
   -1.9906    2.3931   -1.8068 C   0  0  0  0  0  0  0  0  0  0  0  0
   -3.3172    1.9965   -1.8466 C   0  0  0  0  0  0  0  0  0  0  0  0
   -1.2681   -0.3664    1.8905 O   0  0  0  0  0  0  0  0  0  0  0  0
   -0.5032   -0.5693   -0.3238 O   0  0  0  0  0  0  0  0  0  0  0  0
   -0.0614   -0.3156    1.0525 B   0  0  0  0  0  0  0  0  0  0  0  0
    1.4076   -2.7124   -0.3845 C   0  0  0  0  0  0  0  0  0  0  0  0
    1.7485   -1.6158    0.4024 C   0  0  0  0  0  0  0  0  0  0  0  0
    2.8884   -0.8182    0.0867 C   0  0  0  0  0  0  0  0  0  0  0  0
    3.5558   -1.1812   -1.1149 C   0  0  0  0  0  0  0  0  0  0  0  0
    3.1334   -2.2382   -1.9144 C   0  0  0  0  0  0  0  0  0  0  0  0
    2.0668   -3.0464   -1.5567 C   0  0  0  0  0  0  0  0  0  0  0  0
    3.4551    0.1966    0.9310 C   0  0  0  0  0  0  0  0  0  0  0  0
    4.8150    0.5640    0.6783 C   0  0  0  0  0  0  0  0  0  0  0  0
    5.4372    0.3113   -0.5604 C   0  0  0  0  0  0  0  0  0  0  0  0
    2.8428    0.8038    2.0825 C   0  0  0  0  0  0  0  0  0  0  0  0
    3.6491    1.2559    3.1594 C   0  0  0  0  0  0  0  0  0  0  0  0
    5.0935    1.4183    3.0110 C   0  0  0  0  0  0  0  0  0  0  0  0
    5.6042    1.2134    1.6511 C   0  0  0  0  0  0  0  0  0  0  0  0
    6.8994    1.6180    1.3667 C   0  0  0  0  0  0  0  0  0  0  0  0
    7.4830    1.4333    0.1177 C   0  0  0  0  0  0  0  0  0  0  0  0
    6.7252    0.7633   -0.8295 C   0  0  0  0  0  0  0  0  0  0  0  0
    1.4507    1.0325    2.2296 C   0  0  0  0  0  0  0  0  0  0  0  0
    0.9186    1.3765    3.4668 C   0  0  0  0  0  0  0  0  0  0  0  0
    1.7128    1.6061    4.5855 C   0  0  0  0  0  0  0  0  0  0  0  0
    3.0855    1.6140    4.3803 C   0  0  0  0  0  0  0  0  0  0  0  0
    0.6282    0.9567    1.1658 O   0  0  0  0  0  0  0  0  0  0  0  0
    0.9238   -1.3658    1.4300 O   0  0  0  0  0  0  0  0  0  0  0  0
    4.7480   -0.4724   -1.5842 C   0  0  0  0  0  0  0  0  0  0  0  0
    5.8353    1.7627    3.9286 O   0  0  0  0  0  0  0  0  0  0  0  0
    5.1879   -0.5881   -2.7281 O   0  0  0  0  0  0  0  0  0  0  0  0
   -4.2878   -5.3060    0.2636 O   0  0  0  0  0  0  0  0  0  0  0  0
   -5.9791    1.2358   -1.9368 O   0  0  0  0  0  0  0  0  0  0  0  0
   -1.3465   -4.5695    4.3446 C   0  0  0  0  0  0  0  0  0  0  0  0
   -0.4744   -3.8008    5.3383 C   0  0  0  0  0  0  0  0  0  0  0  0
   -0.5461   -5.7567    3.7903 C   0  0  0  0  0  0  0  0  0  0  0  0
   -2.5913   -5.0673    5.0915 C   0  0  0  0  0  0  0  0  0  0  0  0
   -1.5015    3.7422   -2.3036 C   0  0  0  0  0  0  0  0  0  0  0  0
   -2.6351    4.6048   -2.8657 C   0  0  0  0  0  0  0  0  0  0  0  0
   -0.8600    4.4877   -1.1253 C   0  0  0  0  0  0  0  0  0  0  0  0
   -0.4615    3.5272   -3.4116 C   0  0  0  0  0  0  0  0  0  0  0  0
   -8.3561   -3.3564   -2.1736 C   0  0  0  0  0  0  0  0  0  0  0  0
   -8.0432   -4.4786   -3.1734 C   0  0  0  0  0  0  0  0  0  0  0  0
   -9.2038   -2.2983   -2.8843 C   0  0  0  0  0  0  0  0  0  0  0  0
   -9.1686   -3.9201   -0.9997 C   0  0  0  0  0  0  0  0  0  0  0  0
    1.5764   -4.2182   -2.3881 C   0  0  0  0  0  0  0  0  0  0  0  0
    0.1444   -3.9191   -2.8528 C   0  0  0  0  0  0  0  0  0  0  0  0
    1.5867   -5.4885   -1.5267 C   0  0  0  0  0  0  0  0  0  0  0  0
    2.4504   -4.4632   -3.6214 C   0  0  0  0  0  0  0  0  0  0  0  0
    1.0649    1.8451    5.9383 C   0  0  0  0  0  0  0  0  0  0  0  0
    0.2546    0.5928    6.3045 C   0  0  0  0  0  0  0  0  0  0  0  0
    2.0857    2.0939    7.0523 C   0  0  0  0  0  0  0  0  0  0  0  0
    0.1364    3.0638    5.8529 C   0  0  0  0  0  0  0  0  0  0  0  0
    8.8929    1.9383   -0.1397 C   0  0  0  0  0  0  0  0  0  0  0  0
    9.8579    1.2407    0.8289 C   0  0  0  0  0  0  0  0  0  0  0  0
    9.3596    1.6620   -1.5713 C   0  0  0  0  0  0  0  0  0  0  0  0
    8.9283    3.4547    0.0965 C   0  0  0  0  0  0  0  0  0  0  0  0
   10.3656    2.0558   -1.7107 H   0  0  0  0  0  0  0  0  0  0  0  0
    8.7036    2.1428   -2.2931 H   0  0  0  0  0  0  0  0  0  0  0  0
    9.3832    0.5940   -1.7739 H   0  0  0  0  0  0  0  0  0  0  0  0
   10.8775    1.5843    0.6601 H   0  0  0  0  0  0  0  0  0  0  0  0
    9.8257    0.1634    0.6784 H   0  0  0  0  0  0  0  0  0  0  0  0
    9.5928    1.4469    1.8619 H   0  0  0  0  0  0  0  0  0  0  0  0
    9.9297    3.8425   -0.0845 H   0  0  0  0  0  0  0  0  0  0  0  0
    8.6450    3.6991    1.1163 H   0  0  0  0  0  0  0  0  0  0  0  0
    8.2359    3.9547   -0.5778 H   0  0  0  0  0  0  0  0  0  0  0  0
    1.5637    2.2101    8.0004 H   0  0  0  0  0  0  0  0  0  0  0  0
    2.6565    3.0018    6.8686 H   0  0  0  0  0  0  0  0  0  0  0  0
    2.7711    1.2553    7.1529 H   0  0  0  0  0  0  0  0  0  0  0  0
   -0.2865    3.2769    6.8319 H   0  0  0  0  0  0  0  0  0  0  0  0
   -0.6815    2.8910    5.1587 H   0  0  0  0  0  0  0  0  0  0  0  0
    0.6927    3.9384    5.5192 H   0  0  0  0  0  0  0  0  0  0  0  0
   -0.1837    0.7063    7.2939 H   0  0  0  0  0  0  0  0  0  0  0  0
    0.9029   -0.2818    6.3177 H   0  0  0  0  0  0  0  0  0  0  0  0
   -0.5439    0.4167    5.5882 H   0  0  0  0  0  0  0  0  0  0  0  0
   -0.4568    5.4439   -1.4564 H   0  0  0  0  0  0  0  0  0  0  0  0
   -0.0565    3.9045   -0.6856 H   0  0  0  0  0  0  0  0  0  0  0  0
   -1.6016    4.6724   -0.3514 H   0  0  0  0  0  0  0  0  0  0  0  0
   -2.2361    5.5640   -3.1930 H   0  0  0  0  0  0  0  0  0  0  0  0
   -3.3913    4.7939   -2.1079 H   0  0  0  0  0  0  0  0  0  0  0  0
   -3.1048    4.1232   -3.7203 H   0  0  0  0  0  0  0  0  0  0  0  0
   -0.1103    4.4861   -3.7901 H   0  0  0  0  0  0  0  0  0  0  0  0
   -0.9006    2.9688   -4.2363 H   0  0  0  0  0  0  0  0  0  0  0  0
    0.3946    2.9713   -3.0413 H   0  0  0  0  0  0  0  0  0  0  0  0
  -10.1145   -4.3270   -1.3546 H   0  0  0  0  0  0  0  0  0  0  0  0
   -9.3785   -3.1332   -0.2782 H   0  0  0  0  0  0  0  0  0  0  0  0
   -8.6245   -4.7105   -0.4905 H   0  0  0  0  0  0  0  0  0  0  0  0
  -10.1257   -2.7511   -3.2473 H   0  0  0  0  0  0  0  0  0  0  0  0
   -8.6720   -1.8820   -3.7366 H   0  0  0  0  0  0  0  0  0  0  0  0
   -9.4672   -1.4913   -2.2051 H   0  0  0  0  0  0  0  0  0  0  0  0
   -8.9658   -4.8998   -3.5704 H   0  0  0  0  0  0  0  0  0  0  0  0
   -7.4767   -5.2765   -2.7017 H   0  0  0  0  0  0  0  0  0  0  0  0
   -7.4555   -4.0884   -4.0020 H   0  0  0  0  0  0  0  0  0  0  0  0
   -0.2405   -4.7442   -3.4505 H   0  0  0  0  0  0  0  0  0  0  0  0
    0.1282   -3.0133   -3.4552 H   0  0  0  0  0  0  0  0  0  0  0  0
   -0.5178   -3.7684   -2.0053 H   0  0  0  0  0  0  0  0  0  0  0  0
    1.2507   -6.3430   -2.1121 H   0  0  0  0  0  0  0  0  0  0  0  0
    0.9295   -5.3839   -0.6689 H   0  0  0  0  0  0  0  0  0  0  0  0
    2.5934   -5.6897   -1.1648 H   0  0  0  0  0  0  0  0  0  0  0  0
    2.0688   -5.3196   -4.1758 H   0  0  0  0  0  0  0  0  0  0  0  0
    3.4779   -4.6741   -3.3334 H   0  0  0  0  0  0  0  0  0  0  0  0
    2.4399   -3.6002   -4.2824 H   0  0  0  0  0  0  0  0  0  0  0  0
   -0.1853   -4.4561    6.1589 H   0  0  0  0  0  0  0  0  0  0  0  0
   -1.0295   -2.9630    5.7511 H   0  0  0  0  0  0  0  0  0  0  0  0
    0.4316   -3.4320    4.8634 H   0  0  0  0  0  0  0  0  0  0  0  0
   -2.2970   -5.6528    5.9616 H   0  0  0  0  0  0  0  0  0  0  0  0
   -3.2182   -5.6871    4.4558 H   0  0  0  0  0  0  0  0  0  0  0  0
   -3.1691   -4.2070    5.4186 H   0  0  0  0  0  0  0  0  0  0  0  0
   -0.2166   -6.4004    4.6045 H   0  0  0  0  0  0  0  0  0  0  0  0
    0.3315   -5.3973    3.2566 H   0  0  0  0  0  0  0  0  0  0  0  0
   -1.1459   -6.3490    3.1036 H   0  0  0  0  0  0  0  0  0  0  0  0
   -3.0040   -5.2342    2.2605 H   0  0  0  0  0  0  0  0  0  0  0  0
   -0.7222   -1.9066    3.7028 H   0  0  0  0  0  0  0  0  0  0  0  0
   -6.3725   -4.6710   -0.8186 H   0  0  0  0  0  0  0  0  0  0  0  0
   -7.3072   -0.7423   -2.2771 H   0  0  0  0  0  0  0  0  0  0  0  0
   -4.0877    2.6122   -2.2840 H   0  0  0  0  0  0  0  0  0  0  0  0
   -0.0264    1.6933   -1.2439 H   0  0  0  0  0  0  0  0  0  0  0  0
   -0.1570    1.4449    3.5170 H   0  0  0  0  0  0  0  0  0  0  0  0
    3.7759    1.8991    5.1580 H   0  0  0  0  0  0  0  0  0  0  0  0
    0.5406   -3.2618   -0.0506 H   0  0  0  0  0  0  0  0  0  0  0  0
    3.6966   -2.3992   -2.8203 H   0  0  0  0  0  0  0  0  0  0  0  0
    7.4398    2.0899    2.1748 H   0  0  0  0  0  0  0  0  0  0  0  0
    7.1029    0.5468   -1.8167 H   0  0  0  0  0  0  0  0  0  0  0  0
   -3.4757   -1.4480   10.5568 C   0  0  0  0  0  0  0  0  0  0  0  0
   -3.0294   -0.2108   10.0933 C   0  0  0  0  0  0  0  0  0  0  0  0
   -2.9749    0.0698    8.7027 C   0  0  0  0  0  0  0  0  0  0  0  0
   -3.3065   -1.0168    7.8507 C   0  0  0  0  0  0  0  0  0  0  0  0
   -3.6540   -2.2619    8.3505 C   0  0  0  0  0  0  0  0  0  0  0  0
   -3.7756   -2.5027    9.7123 C   0  0  0  0  0  0  0  0  0  0  0  0
   -2.7397    1.3670    8.1406 C   0  0  0  0  0  0  0  0  0  0  0  0
   -3.2012    1.5674    6.7979 C   0  0  0  0  0  0  0  0  0  0  0  0
   -3.4004    0.4921    5.9082 C   0  0  0  0  0  0  0  0  0  0  0  0
   -3.3142   -0.8840    6.3903 C   0  0  0  0  0  0  0  0  0  0  0  0
   -2.1381    2.5140    8.7772 C   0  0  0  0  0  0  0  0  0  0  0  0
   -2.5035    3.8078    8.3264 C   0  0  0  0  0  0  0  0  0  0  0  0
   -3.3859    4.0112    7.1730 C   0  0  0  0  0  0  0  0  0  0  0  0
   -3.4779    2.8508    6.2884 C   0  0  0  0  0  0  0  0  0  0  0  0
   -3.8748    3.0364    4.9711 C   0  0  0  0  0  0  0  0  0  0  0  0
   -3.9849    1.9802    4.0736 C   0  0  0  0  0  0  0  0  0  0  0  0
   -3.7354    0.7092    4.5764 C   0  0  0  0  0  0  0  0  0  0  0  0
   -1.0903    2.4771    9.7388 C   0  0  0  0  0  0  0  0  0  0  0  0
   -0.5341    3.6632   10.2144 C   0  0  0  0  0  0  0  0  0  0  0  0
   -0.9641    4.9245    9.8237 C   0  0  0  0  0  0  0  0  0  0  0  0
   -1.9653    4.9675    8.8698 C   0  0  0  0  0  0  0  0  0  0  0  0
   -2.6212    0.6681   11.0267 O   0  0  0  0  0  0  0  0  0  0  0  0
   -0.5136    1.3305   10.1485 O   0  0  0  0  0  0  0  0  0  0  0  0
   -1.1590    0.5554   11.2114 B   0  0  0  0  0  0  0  0  0  0  0  0
    0.0465   -2.7637   12.0178 C   0  0  0  0  0  0  0  0  0  0  0  0
    0.2724   -1.4399   11.6048 C   0  0  0  0  0  0  0  0  0  0  0  0
    1.5924   -0.9134   11.5815 C   0  0  0  0  0  0  0  0  0  0  0  0
    2.6037   -1.9167   11.6128 C   0  0  0  0  0  0  0  0  0  0  0  0
    2.3447   -3.2230   12.0011 C   0  0  0  0  0  0  0  0  0  0  0  0
    1.0593   -3.6592   12.2950 C   0  0  0  0  0  0  0  0  0  0  0  0
    2.0213    0.4687   11.4867 C   0  0  0  0  0  0  0  0  0  0  0  0
    3.2694    0.6775   10.8177 C   0  0  0  0  0  0  0  0  0  0  0  0
    4.1067   -0.3848   10.4163 C   0  0  0  0  0  0  0  0  0  0  0  0
    1.4683    1.6011   12.1629 C   0  0  0  0  0  0  0  0  0  0  0  0
    2.2517    2.7892   12.2686 C   0  0  0  0  0  0  0  0  0  0  0  0
    3.2732    3.1065   11.2686 C   0  0  0  0  0  0  0  0  0  0  0  0
    3.7437    1.9671   10.4965 C   0  0  0  0  0  0  0  0  0  0  0  0
    4.7531    2.1438    9.5562 C   0  0  0  0  0  0  0  0  0  0  0  0
    5.4065    1.0692    8.9706 C   0  0  0  0  0  0  0  0  0  0  0  0
    5.1401   -0.1845    9.5156 C   0  0  0  0  0  0  0  0  0  0  0  0
    0.2328    1.6836   12.8837 C   0  0  0  0  0  0  0  0  0  0  0  0
    0.1181    2.5693   13.9587 C   0  0  0  0  0  0  0  0  0  0  0  0
    1.0528    3.5575   14.2293 C   0  0  0  0  0  0  0  0  0  0  0  0
    2.0542    3.7205   13.2802 C   0  0  0  0  0  0  0  0  0  0  0  0
   -0.8570    0.9994   12.5905 O   0  0  0  0  0  0  0  0  0  0  0  0
   -0.8120   -0.8498   11.1307 O   0  0  0  0  0  0  0  0  0  0  0  0
    3.9463   -1.6758   11.0792 C   0  0  0  0  0  0  0  0  0  0  0  0
    3.7314    4.2420   11.1404 O   0  0  0  0  0  0  0  0  0  0  0  0
    4.8534   -2.5019   11.1409 O   0  0  0  0  0  0  0  0  0  0  0  0
   -3.3504   -1.8563    5.6409 O   0  0  0  0  0  0  0  0  0  0  0  0
   -3.9300    5.0829    6.9234 O   0  0  0  0  0  0  0  0  0  0  0  0
   -4.1547   -3.8899   10.2009 C   0  0  0  0  0  0  0  0  0  0  0  0
   -4.2932   -3.9578   11.7238 C   0  0  0  0  0  0  0  0  0  0  0  0
   -3.0520   -4.8633    9.7590 C   0  0  0  0  0  0  0  0  0  0  0  0
   -5.4945   -4.3061    9.5782 C   0  0  0  0  0  0  0  0  0  0  0  0
   -0.3096    6.1704   10.3925 C   0  0  0  0  0  0  0  0  0  0  0  0
   -0.9895    7.4540    9.9042 C   0  0  0  0  0  0  0  0  0  0  0  0
   -0.3966    6.1337   11.9228 C   0  0  0  0  0  0  0  0  0  0  0  0
    1.1604    6.2042    9.9545 C   0  0  0  0  0  0  0  0  0  0  0  0
   -4.3287    2.2139    2.6144 C   0  0  0  0  0  0  0  0  0  0  0  0
   -4.9939    0.9802    1.9963 C   0  0  0  0  0  0  0  0  0  0  0  0
   -3.0184    2.5126    1.8716 C   0  0  0  0  0  0  0  0  0  0  0  0
   -5.2864    3.4023    2.4512 C   0  0  0  0  0  0  0  0  0  0  0  0
    0.8242   -5.0724   12.7982 C   0  0  0  0  0  0  0  0  0  0  0  0
    1.2037   -6.0613   11.6878 C   0  0  0  0  0  0  0  0  0  0  0  0
   -0.6338   -5.3160   13.1962 C   0  0  0  0  0  0  0  0  0  0  0  0
    1.7053   -5.3154   14.0315 C   0  0  0  0  0  0  0  0  0  0  0  0
    0.9323    4.4094   15.4808 C   0  0  0  0  0  0  0  0  0  0  0  0
    1.1016    3.4798   16.6920 C   0  0  0  0  0  0  0  0  0  0  0  0
    2.0084    5.4962   15.5446 C   0  0  0  0  0  0  0  0  0  0  0  0
   -0.4415    5.0885   15.5480 C   0  0  0  0  0  0  0  0  0  0  0  0
    6.3995    1.2190    7.8346 C   0  0  0  0  0  0  0  0  0  0  0  0
    7.8199    0.9938    8.3706 C   0  0  0  0  0  0  0  0  0  0  0  0
    6.0794    0.1698    6.7601 C   0  0  0  0  0  0  0  0  0  0  0  0
    6.3192    2.6068    7.1942 C   0  0  0  0  0  0  0  0  0  0  0  0
    6.6209    0.3934    5.8448 H   0  0  0  0  0  0  0  0  0  0  0  0
    5.0180    0.1809    6.5250 H   0  0  0  0  0  0  0  0  0  0  0  0
    6.3468   -0.8320    7.0869 H   0  0  0  0  0  0  0  0  0  0  0  0
    8.5398    1.0695    7.5580 H   0  0  0  0  0  0  0  0  0  0  0  0
    7.9115    0.0100    8.8252 H   0  0  0  0  0  0  0  0  0  0  0  0
    8.0636    1.7414    9.1237 H   0  0  0  0  0  0  0  0  0  0  0  0
    6.9039    2.6219    6.2782 H   0  0  0  0  0  0  0  0  0  0  0  0
    6.7008    3.3761    7.8624 H   0  0  0  0  0  0  0  0  0  0  0  0
    5.2922    2.8454    6.9321 H   0  0  0  0  0  0  0  0  0  0  0  0
    1.8998    6.0667   16.4662 H   0  0  0  0  0  0  0  0  0  0  0  0
    1.9134    6.1824   14.7070 H   0  0  0  0  0  0  0  0  0  0  0  0
    3.0039    5.0590   15.5307 H   0  0  0  0  0  0  0  0  0  0  0  0
   -0.5187    5.6842   16.4568 H   0  0  0  0  0  0  0  0  0  0  0  0
   -1.2438    4.3569   15.5515 H   0  0  0  0  0  0  0  0  0  0  0  0
   -0.5803    5.7427   14.6917 H   0  0  0  0  0  0  0  0  0  0  0  0
    1.0240    4.0454   17.6196 H   0  0  0  0  0  0  0  0  0  0  0  0
    2.0757    2.9957   16.6610 H   0  0  0  0  0  0  0  0  0  0  0  0
    0.3382    2.7065   16.6922 H   0  0  0  0  0  0  0  0  0  0  0  0
    0.0538    7.0320   12.3441 H   0  0  0  0  0  0  0  0  0  0  0  0
    0.1255    5.2689   12.3202 H   0  0  0  0  0  0  0  0  0  0  0  0
   -1.4380    6.0836   12.2372 H   0  0  0  0  0  0  0  0  0  0  0  0
   -0.5188    8.3165   10.3743 H   0  0  0  0  0  0  0  0  0  0  0  0
   -2.0457    7.4588   10.1642 H   0  0  0  0  0  0  0  0  0  0  0  0
   -0.8902    7.5624    8.8271 H   0  0  0  0  0  0  0  0  0  0  0  0
    1.6295    7.1294   10.2853 H   0  0  0  0  0  0  0  0  0  0  0  0
    1.2301    6.1501    8.8700 H   0  0  0  0  0  0  0  0  0  0  0  0
    1.7231    5.3760   10.3733 H   0  0  0  0  0  0  0  0  0  0  0  0
   -5.6204    3.4586    1.4170 H   0  0  0  0  0  0  0  0  0  0  0  0
   -4.8028    4.3443    2.6959 H   0  0  0  0  0  0  0  0  0  0  0  0
   -6.1594    3.2817    3.0900 H   0  0  0  0  0  0  0  0  0  0  0  0
   -3.2232    2.7245    0.8245 H   0  0  0  0  0  0  0  0  0  0  0  0
   -2.3453    1.6595    1.9182 H   0  0  0  0  0  0  0  0  0  0  0  0
   -2.5170    3.3730    2.3123 H   0  0  0  0  0  0  0  0  0  0  0  0
   -5.3500    1.2149    0.9955 H   0  0  0  0  0  0  0  0  0  0  0  0
   -5.8434    0.6576    2.5964 H   0  0  0  0  0  0  0  0  0  0  0  0
   -4.2903    0.1581    1.9108 H   0  0  0  0  0  0  0  0  0  0  0  0
    1.0412   -7.0856   12.0203 H   0  0  0  0  0  0  0  0  0  0  0  0
    2.2480   -5.9492   11.4097 H   0  0  0  0  0  0  0  0  0  0  0  0
    0.5961   -5.8822   10.8035 H   0  0  0  0  0  0  0  0  0  0  0  0
   -0.7335   -6.3078   13.6355 H   0  0  0  0  0  0  0  0  0  0  0  0
   -1.2879   -5.2665   12.3304 H   0  0  0  0  0  0  0  0  0  0  0  0
   -0.9607   -4.5826   13.9299 H   0  0  0  0  0  0  0  0  0  0  0  0
    1.5539   -6.3251   14.4108 H   0  0  0  0  0  0  0  0  0  0  0  0
    1.4510   -4.6077   14.8180 H   0  0  0  0  0  0  0  0  0  0  0  0
    2.7576   -5.1940   13.7921 H   0  0  0  0  0  0  0  0  0  0  0  0
   -4.5738   -4.9672   12.0232 H   0  0  0  0  0  0  0  0  0  0  0  0
   -5.0624   -3.2723   12.0724 H   0  0  0  0  0  0  0  0  0  0  0  0
   -3.3555   -3.7090   12.2131 H   0  0  0  0  0  0  0  0  0  0  0  0
   -5.7742   -5.3024    9.9179 H   0  0  0  0  0  0  0  0  0  0  0  0
   -5.4373   -4.3186    8.4940 H   0  0  0  0  0  0  0  0  0  0  0  0
   -6.2768   -3.6080    9.8702 H   0  0  0  0  0  0  0  0  0  0  0  0
   -3.2457   -5.8623   10.1482 H   0  0  0  0  0  0  0  0  0  0  0  0
   -2.0858   -4.5218   10.1250 H   0  0  0  0  0  0  0  0  0  0  0  0
   -2.9978   -4.9194    8.6756 H   0  0  0  0  0  0  0  0  0  0  0  0
   -3.8426   -3.0360    7.6218 H   0  0  0  0  0  0  0  0  0  0  0  0
   -3.5083   -1.5477   11.6292 H   0  0  0  0  0  0  0  0  0  0  0  0
   -3.8077   -0.1696    3.9548 H   0  0  0  0  0  0  0  0  0  0  0  0
   -4.0840    4.0528    4.6751 H   0  0  0  0  0  0  0  0  0  0  0  0
   -2.3417    5.8954    8.4701 H   0  0  0  0  0  0  0  0  0  0  0  0
    0.2810    3.5616   10.9121 H   0  0  0  0  0  0  0  0  0  0  0  0
   -0.7889    2.4796   14.5361 H   0  0  0  0  0  0  0  0  0  0  0  0
    2.7250    4.5647   13.2880 H   0  0  0  0  0  0  0  0  0  0  0  0
   -0.9919   -3.0474   12.0641 H   0  0  0  0  0  0  0  0  0  0  0  0
    3.1930   -3.8903   12.0267 H   0  0  0  0  0  0  0  0  0  0  0  0
    5.0139    3.1638    9.3208 H   0  0  0  0  0  0  0  0  0  0  0  0
    5.7274   -1.0491    9.2445 H   0  0  0  0  0  0  0  0  0  0  0  0
  1  2  2  0  0  0  0
  1131  1  0  0  0  0
  2  3  1  0  0  0  0
  2 22  1  0  0  0  0
  3  4  2  0  0  0  0
  4  5  1  0  0  0  0
  5  6  2  0  0  0  0
  5130  1  0  0  0  0
  6 52  1  0  0  0  0
  6  1  1  0  0  0  0
  7  3  1  0  0  0  0
  7  8  1  0  0  0  0
  7 11  1  0  0  0  0
  8  9  2  0  0  0  0
  9 10  1  0  0  0  0
 10  4  1  0  0  0  0
 10 50  2  0  0  0  0
 11 12  2  0  0  0  0
 11 18  1  0  0  0  0
 13 14  1  0  0  0  0
 13 12  1  0  0  0  0
 13 51  2  0  0  0  0
 14  8  1  0  0  0  0
 14 15  2  0  0  0  0
 15 16  1  0  0  0  0
 15133  1  0  0  0  0
 16 60  1  0  0  0  0
 16 17  2  0  0  0  0
 17  9  1  0  0  0  0
 17132  1  0  0  0  0
 18 19  2  0  0  0  0
 18 23  1  0  0  0  0
 19 20  1  0  0  0  0
 19135  1  0  0  0  0
 20 56  1  0  0  0  0
 20 21  2  0  0  0  0
 21 12  1  0  0  0  0
 21134  1  0  0  0  0
 24 23  1  0  0  0  0
 24 22  1  0  0  0  0
 25 26  2  0  0  0  0
 25138  1  0  0  0  0
 26 27  1  0  0  0  0
 26 46  1  0  0  0  0
 27 28  2  0  0  0  0
 28 29  1  0  0  0  0
 28 47  1  0  0  0  0
 29 30  2  0  0  0  0
 29139  1  0  0  0  0
 30 64  1  0  0  0  0
 30 25  1  0  0  0  0
 31 27  1  0  0  0  0
 31 32  1  0  0  0  0
 32 33  2  0  0  0  0
 34 35  2  0  0  0  0
 34 41  1  0  0  0  0
 34 31  1  0  0  0  0
 36 37  1  0  0  0  0
 36 35  1  0  0  0  0
 36 48  2  0  0  0  0
 37 32  1  0  0  0  0
 37 38  2  0  0  0  0
 38 39  1  0  0  0  0
 38140  1  0  0  0  0
 39 72  1  0  0  0  0
 39 40  2  0  0  0  0
 40 33  1  0  0  0  0
 40141  1  0  0  0  0
 41 42  2  0  0  0  0
 41 45  1  0  0  0  0
 42 43  1  0  0  0  0
 42136  1  0  0  0  0
 43 68  1  0  0  0  0
 43 44  2  0  0  0  0
 44 35  1  0  0  0  0
 44137  1  0  0  0  0
 45 24  1  0  0  0  0
 46 24  1  0  0  0  0
 47 33  1  0  0  0  0
 47 49  2  0  0  0  0
 52 53  1  0  0  0  0
 52 54  1  0  0  0  0
 52 55  1  0  0  0  0
 53121  1  0  0  0  0
 53122  1  0  0  0  0
 53123  1  0  0  0  0
 54127  1  0  0  0  0
 54128  1  0  0  0  0
 54129  1  0  0  0  0
 55124  1  0  0  0  0
 55125  1  0  0  0  0
 55126  1  0  0  0  0
 56 57  1  0  0  0  0
 56 58  1  0  0  0  0
 56 59  1  0  0  0  0
 57 97  1  0  0  0  0
 57 98  1  0  0  0  0
 57 99  1  0  0  0  0
 58 94  1  0  0  0  0
 58 95  1  0  0  0  0
 58 96  1  0  0  0  0
 59100  1  0  0  0  0
 59101  1  0  0  0  0
 59102  1  0  0  0  0
 60 61  1  0  0  0  0
 60 62  1  0  0  0  0
 60 63  1  0  0  0  0
 61109  1  0  0  0  0
 61110  1  0  0  0  0
 61111  1  0  0  0  0
 62106  1  0  0  0  0
 62107  1  0  0  0  0
 62108  1  0  0  0  0
 63103  1  0  0  0  0
 63104  1  0  0  0  0
 63105  1  0  0  0  0
 64 65  1  0  0  0  0
 64 66  1  0  0  0  0
 64 67  1  0  0  0  0
 65112  1  0  0  0  0
 65113  1  0  0  0  0
 65114  1  0  0  0  0
 66115  1  0  0  0  0
 66116  1  0  0  0  0
 66117  1  0  0  0  0
 67118  1  0  0  0  0
 67119  1  0  0  0  0
 67120  1  0  0  0  0
 68 69  1  0  0  0  0
 68 70  1  0  0  0  0
 68 71  1  0  0  0  0
 69 91  1  0  0  0  0
 69 92  1  0  0  0  0
 69 93  1  0  0  0  0
 70 85  1  0  0  0  0
 70 86  1  0  0  0  0
 70 87  1  0  0  0  0
 71 88  1  0  0  0  0
 71 89  1  0  0  0  0
 71 90  1  0  0  0  0
 72 73  1  0  0  0  0
 72 74  1  0  0  0  0
 72 75  1  0  0  0  0
 73 79  1  0  0  0  0
 73 80  1  0  0  0  0
 73 81  1  0  0  0  0
 74 76  1  0  0  0  0
 74 77  1  0  0  0  0
 74 78  1  0  0  0  0
 75 82  1  0  0  0  0
 75 83  1  0  0  0  0
 75 84  1  0  0  0  0
142143  2  0  0  0  0
142272  1  0  0  0  0
143144  1  0  0  0  0
143163  1  0  0  0  0
144145  2  0  0  0  0
145146  1  0  0  0  0
146147  2  0  0  0  0
146271  1  0  0  0  0
147193  1  0  0  0  0
147142  1  0  0  0  0
148144  1  0  0  0  0
148149  1  0  0  0  0
148152  1  0  0  0  0
149150  2  0  0  0  0
150151  1  0  0  0  0
151145  1  0  0  0  0
151191  2  0  0  0  0
152153  2  0  0  0  0
152159  1  0  0  0  0
154155  1  0  0  0  0
154153  1  0  0  0  0
154192  2  0  0  0  0
155149  1  0  0  0  0
155156  2  0  0  0  0
156157  1  0  0  0  0
156274  1  0  0  0  0
157201  1  0  0  0  0
157158  2  0  0  0  0
158150  1  0  0  0  0
158273  1  0  0  0  0
159160  2  0  0  0  0
159164  1  0  0  0  0
160161  1  0  0  0  0
160276  1  0  0  0  0
161197  1  0  0  0  0
161162  2  0  0  0  0
162153  1  0  0  0  0
162275  1  0  0  0  0
165164  1  0  0  0  0
165163  1  0  0  0  0
166167  2  0  0  0  0
166279  1  0  0  0  0
167168  1  0  0  0  0
167187  1  0  0  0  0
168169  2  0  0  0  0
169170  1  0  0  0  0
169188  1  0  0  0  0
170171  2  0  0  0  0
170280  1  0  0  0  0
171205  1  0  0  0  0
171166  1  0  0  0  0
172168  1  0  0  0  0
172173  1  0  0  0  0
173174  2  0  0  0  0
175176  2  0  0  0  0
175182  1  0  0  0  0
175172  1  0  0  0  0
177178  1  0  0  0  0
177176  1  0  0  0  0
177189  2  0  0  0  0
178173  1  0  0  0  0
178179  2  0  0  0  0
179180  1  0  0  0  0
179281  1  0  0  0  0
180213  1  0  0  0  0
180181  2  0  0  0  0
181174  1  0  0  0  0
181282  1  0  0  0  0
182183  2  0  0  0  0
182186  1  0  0  0  0
183184  1  0  0  0  0
183277  1  0  0  0  0
184209  1  0  0  0  0
184185  2  0  0  0  0
185176  1  0  0  0  0
185278  1  0  0  0  0
186165  1  0  0  0  0
187165  1  0  0  0  0
188174  1  0  0  0  0
188190  2  0  0  0  0
193194  1  0  0  0  0
193195  1  0  0  0  0
193196  1  0  0  0  0
194262  1  0  0  0  0
194263  1  0  0  0  0
194264  1  0  0  0  0
195268  1  0  0  0  0
195269  1  0  0  0  0
195270  1  0  0  0  0
196265  1  0  0  0  0
196266  1  0  0  0  0
196267  1  0  0  0  0
197198  1  0  0  0  0
197199  1  0  0  0  0
197200  1  0  0  0  0
198238  1  0  0  0  0
198239  1  0  0  0  0
198240  1  0  0  0  0
199235  1  0  0  0  0
199236  1  0  0  0  0
199237  1  0  0  0  0
200241  1  0  0  0  0
200242  1  0  0  0  0
200243  1  0  0  0  0
201202  1  0  0  0  0
201203  1  0  0  0  0
201204  1  0  0  0  0
202250  1  0  0  0  0
202251  1  0  0  0  0
202252  1  0  0  0  0
203247  1  0  0  0  0
203248  1  0  0  0  0
203249  1  0  0  0  0
204244  1  0  0  0  0
204245  1  0  0  0  0
204246  1  0  0  0  0
205206  1  0  0  0  0
205207  1  0  0  0  0
205208  1  0  0  0  0
206253  1  0  0  0  0
206254  1  0  0  0  0
206255  1  0  0  0  0
207256  1  0  0  0  0
207257  1  0  0  0  0
207258  1  0  0  0  0
208259  1  0  0  0  0
208260  1  0  0  0  0
208261  1  0  0  0  0
209210  1  0  0  0  0
209211  1  0  0  0  0
209212  1  0  0  0  0
210232  1  0  0  0  0
210233  1  0  0  0  0
210234  1  0  0  0  0
211226  1  0  0  0  0
211227  1  0  0  0  0
211228  1  0  0  0  0
212229  1  0  0  0  0
212230  1  0  0  0  0
212231  1  0  0  0  0
213214  1  0  0  0  0
213215  1  0  0  0  0
213216  1  0  0  0  0
214220  1  0  0  0  0
214221  1  0  0  0  0
214222  1  0  0  0  0
215217  1  0  0  0  0
215218  1  0  0  0  0
215219  1  0  0  0  0
216223  1  0  0  0  0
216224  1  0  0  0  0
216225  1  0  0  0  0
M  CHG  1  24  -1
M  CHG  1 165  -1
M  END
