energy: -209.297107695074 gnorm: 0.000251564080 xtb: 6.7.1 (edcfbbe)_energy: -209.297107695074 gnorm: 0.000251564080 xtb: 6.7.1 (edcfbbe)
 OpenBabel03172516553D

282304  0  0  0  0  0  0  0  0999 V2000
   -2.1221   -3.0434    1.6931 C   0  0  0  0  0  0  0  0  0  0  0  0
   -2.2117   -1.7296    1.2312 C   0  0  0  0  0  0  0  0  0  0  0  0
   -2.9088   -1.4198    0.0327 C   0  0  0  0  0  0  0  0  0  0  0  0
   -3.3836   -2.5472   -0.6911 C   0  0  0  0  0  0  0  0  0  0  0  0
   -3.2113   -3.8449   -0.2362 C   0  0  0  0  0  0  0  0  0  0  0  0
   -2.6109   -4.1263    0.9842 C   0  0  0  0  0  0  0  0  0  0  0  0
   -3.2649   -0.0937   -0.3841 C   0  0  1  0  0  0  0  0  0  0  0  0
   -4.3673   -0.0107   -1.3018 C   0  0  0  0  0  0  0  0  0  0  0  0
   -4.7427   -1.0953   -2.1225 C   0  0  0  0  0  0  0  0  0  0  0  0
   -4.1169   -2.4046   -1.9499 C   0  0  0  0  0  0  0  0  0  0  0  0
   -2.7142    1.1676    0.0583 C   0  0  0  0  0  0  0  0  0  0  0  0
   -3.5497    2.3168    0.0124 C   0  0  0  0  0  0  0  0  0  0  0  0
   -4.9020    2.2888   -0.5500 C   0  0  0  0  0  0  0  0  0  0  0  0
   -5.1549    1.1494   -1.4291 C   0  0  0  0  0  0  0  0  0  0  0  0
   -6.1975    1.2336   -2.3444 C   0  0  0  0  0  0  0  0  0  0  0  0
   -6.4990    0.1938   -3.2112 C   0  0  0  0  0  0  0  0  0  0  0  0
   -5.7529   -0.9696   -3.0654 C   0  0  0  0  0  0  0  0  0  0  0  0
   -1.3636    1.4242    0.4332 C   0  0  0  0  0  0  0  0  0  0  0  0
   -0.9488    2.7211    0.7583 C   0  0  0  0  0  0  0  0  0  0  0  0
   -1.7971    3.8143    0.7668 C   0  0  0  0  0  0  0  0  0  0  0  0
   -3.1120    3.5736    0.3984 C   0  0  0  0  0  0  0  0  0  0  0  0
   -1.6031   -0.7931    1.9702 O   0  0  0  0  0  0  0  0  0  0  0  0
   -0.3911    0.5008    0.3895 O   0  0  0  0  0  0  0  0  0  0  0  0
   -0.2500   -0.4895    1.4560 B   0  5  1  0  0  0  0  0  0  0  0  0
    1.8007   -3.3921    1.4136 C   0  0  0  0  0  0  0  0  0  0  0  0
    1.6218   -2.0511    1.0543 C   0  0  0  0  0  0  0  0  0  0  0  0
    2.7473   -1.2489    0.7103 C   0  0  0  0  0  0  0  0  0  0  0  0
    3.9221   -2.0038    0.4346 C   0  0  0  0  0  0  0  0  0  0  0  0
    4.0627   -3.3366    0.8058 C   0  0  0  0  0  0  0  0  0  0  0  0
    3.0208   -4.0457    1.3782 C   0  0  0  0  0  0  0  0  0  0  0  0
    2.8262    0.1931    0.5699 C   0  0  2  0  0  0  0  0  0  0  0  0
    3.7906    0.6736   -0.3793 C   0  0  0  0  0  0  0  0  0  0  0  0
    4.7542   -0.1629   -0.9749 C   0  0  0  0  0  0  0  0  0  0  0  0
    2.2543    1.1798    1.4307 C   0  0  0  0  0  0  0  0  0  0  0  0
    2.6859    2.5344    1.3249 C   0  0  0  0  0  0  0  0  0  0  0  0
    3.2192    3.0488    0.0632 C   0  0  0  0  0  0  0  0  0  0  0  0
    3.8462    2.0298   -0.7703 C   0  0  0  0  0  0  0  0  0  0  0  0
    4.6282    2.4365   -1.8423 C   0  0  0  0  0  0  0  0  0  0  0  0
    5.4641    1.5629   -2.5284 C   0  0  0  0  0  0  0  0  0  0  0  0
    5.5597    0.2759   -2.0192 C   0  0  0  0  0  0  0  0  0  0  0  0
    1.3885    0.9521    2.5482 C   0  0  0  0  0  0  0  0  0  0  0  0
    1.4048    1.8319    3.6322 C   0  0  0  0  0  0  0  0  0  0  0  0
    2.0681    3.0496    3.6103 C   0  0  0  0  0  0  0  0  0  0  0  0
    2.6128    3.4238    2.3873 C   0  0  0  0  0  0  0  0  0  0  0  0
    0.5372   -0.0540    2.6316 O   0  0  0  0  0  0  0  0  0  0  0  0
    0.3463   -1.6984    0.9356 O   0  0  0  0  0  0  0  0  0  0  0  0
    5.0152   -1.4715   -0.3800 C   0  0  0  0  0  0  0  0  0  0  0  0
    3.2088    4.2443   -0.2211 O   0  0  0  0  0  0  0  0  0  0  0  0
    6.0556   -2.0894   -0.5943 O   0  0  0  0  0  0  0  0  0  0  0  0
   -4.2806   -3.3295   -2.7414 O   0  0  0  0  0  0  0  0  0  0  0  0
   -5.7238    3.1846   -0.3772 O   0  0  0  0  0  0  0  0  0  0  0  0
   -2.5112   -5.5648    1.4612 C   0  0  0  0  0  0  0  0  0  0  0  0
   -1.7475   -5.6940    2.7810 C   0  0  0  0  0  0  0  0  0  0  0  0
   -1.7876   -6.3954    0.3919 C   0  0  0  0  0  0  0  0  0  0  0  0
   -3.9310   -6.1122    1.6674 C   0  0  0  0  0  0  0  0  0  0  0  0
   -1.3694    5.2272    1.1204 C   0  0  0  0  0  0  0  0  0  0  0  0
   -1.6571    6.1519   -0.0708 C   0  0  0  0  0  0  0  0  0  0  0  0
   -2.1787    5.6863    2.3422 C   0  0  0  0  0  0  0  0  0  0  0  0
    0.1174    5.3257    1.4559 C   0  0  0  0  0  0  0  0  0  0  0  0
   -7.5937    0.2659   -4.2616 C   0  0  0  0  0  0  0  0  0  0  0  0
   -6.9724    0.0169   -5.6430 C   0  0  0  0  0  0  0  0  0  0  0  0
   -8.2916    1.6281   -4.2838 C   0  0  0  0  0  0  0  0  0  0  0  0
   -8.6434   -0.8137   -3.9635 C   0  0  0  0  0  0  0  0  0  0  0  0
    3.1549   -5.4691    1.8898 C   0  0  0  0  0  0  0  0  0  0  0  0
    2.2598   -6.3967    1.0588 C   0  0  0  0  0  0  0  0  0  0  0  0
    2.7162   -5.5059    3.3603 C   0  0  0  0  0  0  0  0  0  0  0  0
    4.5958   -5.9797    1.8045 C   0  0  0  0  0  0  0  0  0  0  0  0
    2.1272    3.9130    4.8581 C   0  0  0  0  0  0  0  0  0  0  0  0
    2.8555    3.1158    5.9504 C   0  0  0  0  0  0  0  0  0  0  0  0
    2.8880    5.2204    4.6218 C   0  0  0  0  0  0  0  0  0  0  0  0
    0.7103    4.2577    5.3364 C   0  0  0  0  0  0  0  0  0  0  0  0
    6.2682    2.0572   -3.7179 C   0  0  0  0  0  0  0  0  0  0  0  0
    7.2318    3.1561   -3.2487 C   0  0  0  0  0  0  0  0  0  0  0  0
    7.0846    0.9397   -4.3722 C   0  0  0  0  0  0  0  0  0  0  0  0
    5.3019    2.6273   -4.7654 C   0  0  0  0  0  0  0  0  0  0  0  0
    7.6022    1.3296   -5.2473 H   0  0  0  0  0  0  0  0  0  0  0  0
    6.4388    0.1260   -4.6936 H   0  0  0  0  0  0  0  0  0  0  0  0
    7.8313    0.5476   -3.6861 H   0  0  0  0  0  0  0  0  0  0  0  0
    7.8256    3.5194   -4.0858 H   0  0  0  0  0  0  0  0  0  0  0  0
    7.9060    2.7643   -2.4896 H   0  0  0  0  0  0  0  0  0  0  0  0
    6.6901    3.9956   -2.8220 H   0  0  0  0  0  0  0  0  0  0  0  0
    5.8543    2.9872   -5.6319 H   0  0  0  0  0  0  0  0  0  0  0  0
    4.7250    3.4535   -4.3599 H   0  0  0  0  0  0  0  0  0  0  0  0
    4.6075    1.8566   -5.0934 H   0  0  0  0  0  0  0  0  0  0  0  0
    2.9354    5.7885    5.5496 H   0  0  0  0  0  0  0  0  0  0  0  0
    2.3876    5.8320    3.8754 H   0  0  0  0  0  0  0  0  0  0  0  0
    3.9050    5.0230    4.2915 H   0  0  0  0  0  0  0  0  0  0  0  0
    0.7582    4.8417    6.2542 H   0  0  0  0  0  0  0  0  0  0  0  0
    0.1302    3.3605    5.5315 H   0  0  0  0  0  0  0  0  0  0  0  0
    0.1888    4.8444    4.5840 H   0  0  0  0  0  0  0  0  0  0  0  0
    2.9280    3.7042    6.8637 H   0  0  0  0  0  0  0  0  0  0  0  0
    3.8610    2.8608    5.6216 H   0  0  0  0  0  0  0  0  0  0  0  0
    2.3272    2.1935    6.1747 H   0  0  0  0  0  0  0  0  0  0  0  0
   -1.8834    6.6929    2.6344 H   0  0  0  0  0  0  0  0  0  0  0  0
   -2.0025    5.0146    3.1799 H   0  0  0  0  0  0  0  0  0  0  0  0
   -3.2442    5.6893    2.1288 H   0  0  0  0  0  0  0  0  0  0  0  0
   -1.3479    7.1691    0.1636 H   0  0  0  0  0  0  0  0  0  0  0  0
   -2.7146    6.1639   -0.3200 H   0  0  0  0  0  0  0  0  0  0  0  0
   -1.1023    5.8154   -0.9436 H   0  0  0  0  0  0  0  0  0  0  0  0
    0.3651    6.3526    1.7223 H   0  0  0  0  0  0  0  0  0  0  0  0
    0.7368    5.0407    0.6095 H   0  0  0  0  0  0  0  0  0  0  0  0
    0.3622    4.6836    2.2964 H   0  0  0  0  0  0  0  0  0  0  0  0
   -9.4424   -0.7769   -4.7023 H   0  0  0  0  0  0  0  0  0  0  0  0
   -9.0755   -0.6542   -2.9776 H   0  0  0  0  0  0  0  0  0  0  0  0
   -8.2020   -1.8061   -3.9850 H   0  0  0  0  0  0  0  0  0  0  0  0
   -9.0528    1.6359   -5.0625 H   0  0  0  0  0  0  0  0  0  0  0  0
   -7.5821    2.4245   -4.4953 H   0  0  0  0  0  0  0  0  0  0  0  0
   -8.7784    1.8324   -3.3333 H   0  0  0  0  0  0  0  0  0  0  0  0
   -7.7379    0.0670   -6.4156 H   0  0  0  0  0  0  0  0  0  0  0  0
   -6.5004   -0.9603   -5.6910 H   0  0  0  0  0  0  0  0  0  0  0  0
   -6.2166    0.7704   -5.8552 H   0  0  0  0  0  0  0  0  0  0  0  0
    2.3698   -7.4272    1.3929 H   0  0  0  0  0  0  0  0  0  0  0  0
    2.5343   -6.3413    0.0076 H   0  0  0  0  0  0  0  0  0  0  0  0
    1.2155   -6.1166    1.1534 H   0  0  0  0  0  0  0  0  0  0  0  0
    2.7848   -6.5203    3.7502 H   0  0  0  0  0  0  0  0  0  0  0  0
    1.6918   -5.1633    3.4729 H   0  0  0  0  0  0  0  0  0  0  0  0
    3.3563   -4.8602    3.9578 H   0  0  0  0  0  0  0  0  0  0  0  0
    4.6562   -6.9784    2.2345 H   0  0  0  0  0  0  0  0  0  0  0  0
    5.2705   -5.3294    2.3559 H   0  0  0  0  0  0  0  0  0  0  0  0
    4.9283   -6.0362    0.7711 H   0  0  0  0  0  0  0  0  0  0  0  0
   -1.6946   -6.7416    3.0747 H   0  0  0  0  0  0  0  0  0  0  0  0
   -2.2459   -5.1437    3.5754 H   0  0  0  0  0  0  0  0  0  0  0  0
   -0.7320   -5.3201    2.6799 H   0  0  0  0  0  0  0  0  0  0  0  0
   -3.8918   -7.1514    1.9902 H   0  0  0  0  0  0  0  0  0  0  0  0
   -4.5059   -6.0581    0.7470 H   0  0  0  0  0  0  0  0  0  0  0  0
   -4.4502   -5.5318    2.4274 H   0  0  0  0  0  0  0  0  0  0  0  0
   -1.6083   -7.4067    0.7537 H   0  0  0  0  0  0  0  0  0  0  0  0
   -0.8325   -5.9378    0.1443 H   0  0  0  0  0  0  0  0  0  0  0  0
   -2.3745   -6.4584   -0.5197 H   0  0  0  0  0  0  0  0  0  0  0  0
   -3.5917   -4.6294   -0.8733 H   0  0  0  0  0  0  0  0  0  0  0  0
   -1.6046   -3.1604    2.6314 H   0  0  0  0  0  0  0  0  0  0  0  0
   -5.9464   -1.8422   -3.6727 H   0  0  0  0  0  0  0  0  0  0  0  0
   -6.7545    2.1575   -2.3434 H   0  0  0  0  0  0  0  0  0  0  0  0
   -3.8427    4.3676    0.3535 H   0  0  0  0  0  0  0  0  0  0  0  0
    0.0969    2.8297    0.9940 H   0  0  0  0  0  0  0  0  0  0  0  0
    0.8143    1.5277    4.4826 H   0  0  0  0  0  0  0  0  0  0  0  0
    3.0093    4.4109    2.2135 H   0  0  0  0  0  0  0  0  0  0  0  0
    0.8970   -3.9055    1.7029 H   0  0  0  0  0  0  0  0  0  0  0  0
    5.0188   -3.7866    0.5916 H   0  0  0  0  0  0  0  0  0  0  0  0
    4.5827    3.4864   -2.0934 H   0  0  0  0  0  0  0  0  0  0  0  0
    6.2728   -0.4378   -2.4011 H   0  0  0  0  0  0  0  0  0  0  0  0
   -2.1221   -3.0434   11.6931 C   0  0  0  0  0  0  0  0  0  0  0  0
   -2.2117   -1.7296   11.2312 C   0  0  0  0  0  0  0  0  0  0  0  0
   -2.9088   -1.4198   10.0327 C   0  0  0  0  0  0  0  0  0  0  0  0
   -3.3836   -2.5472    9.3089 C   0  0  0  0  0  0  0  0  0  0  0  0
   -3.2113   -3.8449    9.7638 C   0  0  0  0  0  0  0  0  0  0  0  0
   -2.6109   -4.1263   10.9842 C   0  0  0  0  0  0  0  0  0  0  0  0
   -3.2649   -0.0937    9.6159 C   0  0  1  0  0  0  0  0  0  0  0  0
   -4.3673   -0.0107    8.6982 C   0  0  0  0  0  0  0  0  0  0  0  0
   -4.7427   -1.0953    7.8775 C   0  0  0  0  0  0  0  0  0  0  0  0
   -4.1169   -2.4046    8.0501 C   0  0  0  0  0  0  0  0  0  0  0  0
   -2.7142    1.1676   10.0583 C   0  0  0  0  0  0  0  0  0  0  0  0
   -3.5497    2.3168   10.0124 C   0  0  0  0  0  0  0  0  0  0  0  0
   -4.9020    2.2888    9.4500 C   0  0  0  0  0  0  0  0  0  0  0  0
   -5.1549    1.1494    8.5709 C   0  0  0  0  0  0  0  0  0  0  0  0
   -6.1975    1.2336    7.6556 C   0  0  0  0  0  0  0  0  0  0  0  0
   -6.4990    0.1938    6.7888 C   0  0  0  0  0  0  0  0  0  0  0  0
   -5.7529   -0.9696    6.9346 C   0  0  0  0  0  0  0  0  0  0  0  0
   -1.3636    1.4242   10.4332 C   0  0  0  0  0  0  0  0  0  0  0  0
   -0.9488    2.7211   10.7583 C   0  0  0  0  0  0  0  0  0  0  0  0
   -1.7971    3.8143   10.7668 C   0  0  0  0  0  0  0  0  0  0  0  0
   -3.1120    3.5736   10.3984 C   0  0  0  0  0  0  0  0  0  0  0  0
   -1.6031   -0.7931   11.9702 O   0  0  0  0  0  0  0  0  0  0  0  0
   -0.3911    0.5008   10.3895 O   0  0  0  0  0  0  0  0  0  0  0  0
   -0.2500   -0.4895   11.4560 B   0  5  1  0  0  0  0  0  0  0  0  0
    1.8007   -3.3921   11.4136 C   0  0  0  0  0  0  0  0  0  0  0  0
    1.6218   -2.0511   11.0543 C   0  0  0  0  0  0  0  0  0  0  0  0
    2.7473   -1.2489   10.7103 C   0  0  0  0  0  0  0  0  0  0  0  0
    3.9221   -2.0038   10.4346 C   0  0  0  0  0  0  0  0  0  0  0  0
    4.0627   -3.3366   10.8058 C   0  0  0  0  0  0  0  0  0  0  0  0
    3.0208   -4.0457   11.3782 C   0  0  0  0  0  0  0  0  0  0  0  0
    2.8262    0.1931   10.5699 C   0  0  2  0  0  0  0  0  0  0  0  0
    3.7906    0.6736    9.6207 C   0  0  0  0  0  0  0  0  0  0  0  0
    4.7542   -0.1629    9.0251 C   0  0  0  0  0  0  0  0  0  0  0  0
    2.2543    1.1798   11.4307 C   0  0  0  0  0  0  0  0  0  0  0  0
    2.6859    2.5344   11.3249 C   0  0  0  0  0  0  0  0  0  0  0  0
    3.2192    3.0488   10.0632 C   0  0  0  0  0  0  0  0  0  0  0  0
    3.8462    2.0298    9.2297 C   0  0  0  0  0  0  0  0  0  0  0  0
    4.6282    2.4365    8.1577 C   0  0  0  0  0  0  0  0  0  0  0  0
    5.4641    1.5629    7.4716 C   0  0  0  0  0  0  0  0  0  0  0  0
    5.5597    0.2759    7.9808 C   0  0  0  0  0  0  0  0  0  0  0  0
    1.3885    0.9521   12.5482 C   0  0  0  0  0  0  0  0  0  0  0  0
    1.4048    1.8319   13.6322 C   0  0  0  0  0  0  0  0  0  0  0  0
    2.0681    3.0496   13.6103 C   0  0  0  0  0  0  0  0  0  0  0  0
    2.6128    3.4238   12.3873 C   0  0  0  0  0  0  0  0  0  0  0  0
    0.5372   -0.0540   12.6316 O   0  0  0  0  0  0  0  0  0  0  0  0
    0.3463   -1.6984   10.9356 O   0  0  0  0  0  0  0  0  0  0  0  0
    5.0152   -1.4715    9.6200 C   0  0  0  0  0  0  0  0  0  0  0  0
    3.2088    4.2443    9.7789 O   0  0  0  0  0  0  0  0  0  0  0  0
    6.0556   -2.0894    9.4057 O   0  0  0  0  0  0  0  0  0  0  0  0
   -4.2806   -3.3295    7.2586 O   0  0  0  0  0  0  0  0  0  0  0  0
   -5.7238    3.1846    9.6228 O   0  0  0  0  0  0  0  0  0  0  0  0
   -2.5112   -5.5648   11.4612 C   0  0  0  0  0  0  0  0  0  0  0  0
   -1.7475   -5.6940   12.7810 C   0  0  0  0  0  0  0  0  0  0  0  0
   -1.7876   -6.3954   10.3919 C   0  0  0  0  0  0  0  0  0  0  0  0
   -3.9310   -6.1122   11.6674 C   0  0  0  0  0  0  0  0  0  0  0  0
   -1.3694    5.2272   11.1204 C   0  0  0  0  0  0  0  0  0  0  0  0
   -1.6571    6.1519    9.9292 C   0  0  0  0  0  0  0  0  0  0  0  0
   -2.1787    5.6863   12.3422 C   0  0  0  0  0  0  0  0  0  0  0  0
    0.1174    5.3257   11.4559 C   0  0  0  0  0  0  0  0  0  0  0  0
   -7.5937    0.2659    5.7384 C   0  0  0  0  0  0  0  0  0  0  0  0
   -6.9724    0.0169    4.3570 C   0  0  0  0  0  0  0  0  0  0  0  0
   -8.2916    1.6281    5.7162 C   0  0  0  0  0  0  0  0  0  0  0  0
   -8.6434   -0.8137    6.0365 C   0  0  0  0  0  0  0  0  0  0  0  0
    3.1549   -5.4691   11.8898 C   0  0  0  0  0  0  0  0  0  0  0  0
    2.2598   -6.3967   11.0588 C   0  0  0  0  0  0  0  0  0  0  0  0
    2.7162   -5.5059   13.3603 C   0  0  0  0  0  0  0  0  0  0  0  0
    4.5958   -5.9797   11.8045 C   0  0  0  0  0  0  0  0  0  0  0  0
    2.1272    3.9130   14.8581 C   0  0  0  0  0  0  0  0  0  0  0  0
    2.8555    3.1158   15.9504 C   0  0  0  0  0  0  0  0  0  0  0  0
    2.8880    5.2204   14.6218 C   0  0  0  0  0  0  0  0  0  0  0  0
    0.7103    4.2577   15.3364 C   0  0  0  0  0  0  0  0  0  0  0  0
    6.2682    2.0572    6.2821 C   0  0  0  0  0  0  0  0  0  0  0  0
    7.2318    3.1561    6.7513 C   0  0  0  0  0  0  0  0  0  0  0  0
    7.0846    0.9397    5.6278 C   0  0  0  0  0  0  0  0  0  0  0  0
    5.3019    2.6273    5.2346 C   0  0  0  0  0  0  0  0  0  0  0  0
    7.6022    1.3296    4.7527 H   0  0  0  0  0  0  0  0  0  0  0  0
    6.4388    0.1260    5.3064 H   0  0  0  0  0  0  0  0  0  0  0  0
    7.8313    0.5476    6.3139 H   0  0  0  0  0  0  0  0  0  0  0  0
    7.8256    3.5194    5.9142 H   0  0  0  0  0  0  0  0  0  0  0  0
    7.9060    2.7643    7.5104 H   0  0  0  0  0  0  0  0  0  0  0  0
    6.6901    3.9956    7.1780 H   0  0  0  0  0  0  0  0  0  0  0  0
    5.8543    2.9872    4.3681 H   0  0  0  0  0  0  0  0  0  0  0  0
    4.7250    3.4535    5.6401 H   0  0  0  0  0  0  0  0  0  0  0  0
    4.6075    1.8566    4.9066 H   0  0  0  0  0  0  0  0  0  0  0  0
    2.9354    5.7885   15.5496 H   0  0  0  0  0  0  0  0  0  0  0  0
    2.3876    5.8320   13.8754 H   0  0  0  0  0  0  0  0  0  0  0  0
    3.9050    5.0230   14.2915 H   0  0  0  0  0  0  0  0  0  0  0  0
    0.7582    4.8417   16.2542 H   0  0  0  0  0  0  0  0  0  0  0  0
    0.1302    3.3605   15.5315 H   0  0  0  0  0  0  0  0  0  0  0  0
    0.1888    4.8444   14.5840 H   0  0  0  0  0  0  0  0  0  0  0  0
    2.9280    3.7042   16.8637 H   0  0  0  0  0  0  0  0  0  0  0  0
    3.8610    2.8608   15.6216 H   0  0  0  0  0  0  0  0  0  0  0  0
    2.3272    2.1935   16.1747 H   0  0  0  0  0  0  0  0  0  0  0  0
   -1.8834    6.6929   12.6344 H   0  0  0  0  0  0  0  0  0  0  0  0
   -2.0025    5.0146   13.1799 H   0  0  0  0  0  0  0  0  0  0  0  0
   -3.2442    5.6893   12.1288 H   0  0  0  0  0  0  0  0  0  0  0  0
   -1.3479    7.1691   10.1636 H   0  0  0  0  0  0  0  0  0  0  0  0
   -2.7146    6.1639    9.6800 H   0  0  0  0  0  0  0  0  0  0  0  0
   -1.1023    5.8154    9.0564 H   0  0  0  0  0  0  0  0  0  0  0  0
    0.3651    6.3526   11.7223 H   0  0  0  0  0  0  0  0  0  0  0  0
    0.7368    5.0407   10.6095 H   0  0  0  0  0  0  0  0  0  0  0  0
    0.3622    4.6836   12.2964 H   0  0  0  0  0  0  0  0  0  0  0  0
   -9.4424   -0.7769    5.2977 H   0  0  0  0  0  0  0  0  0  0  0  0
   -9.0755   -0.6542    7.0224 H   0  0  0  0  0  0  0  0  0  0  0  0
   -8.2020   -1.8061    6.0150 H   0  0  0  0  0  0  0  0  0  0  0  0
   -9.0528    1.6359    4.9375 H   0  0  0  0  0  0  0  0  0  0  0  0
   -7.5821    2.4245    5.5047 H   0  0  0  0  0  0  0  0  0  0  0  0
   -8.7784    1.8324    6.6667 H   0  0  0  0  0  0  0  0  0  0  0  0
   -7.7379    0.0670    3.5844 H   0  0  0  0  0  0  0  0  0  0  0  0
   -6.5004   -0.9603    4.3090 H   0  0  0  0  0  0  0  0  0  0  0  0
   -6.2166    0.7704    4.1448 H   0  0  0  0  0  0  0  0  0  0  0  0
    2.3698   -7.4272   11.3929 H   0  0  0  0  0  0  0  0  0  0  0  0
    2.5343   -6.3413   10.0076 H   0  0  0  0  0  0  0  0  0  0  0  0
    1.2155   -6.1166   11.1534 H   0  0  0  0  0  0  0  0  0  0  0  0
    2.7848   -6.5203   13.7502 H   0  0  0  0  0  0  0  0  0  0  0  0
    1.6918   -5.1633   13.4729 H   0  0  0  0  0  0  0  0  0  0  0  0
    3.3563   -4.8602   13.9578 H   0  0  0  0  0  0  0  0  0  0  0  0
    4.6562   -6.9784   12.2345 H   0  0  0  0  0  0  0  0  0  0  0  0
    5.2705   -5.3294   12.3559 H   0  0  0  0  0  0  0  0  0  0  0  0
    4.9283   -6.0362   10.7711 H   0  0  0  0  0  0  0  0  0  0  0  0
   -1.6946   -6.7416   13.0747 H   0  0  0  0  0  0  0  0  0  0  0  0
   -2.2459   -5.1437   13.5754 H   0  0  0  0  0  0  0  0  0  0  0  0
   -0.7320   -5.3201   12.6799 H   0  0  0  0  0  0  0  0  0  0  0  0
   -3.8918   -7.1514   11.9902 H   0  0  0  0  0  0  0  0  0  0  0  0
   -4.5059   -6.0581   10.7470 H   0  0  0  0  0  0  0  0  0  0  0  0
   -4.4502   -5.5318   12.4274 H   0  0  0  0  0  0  0  0  0  0  0  0
   -1.6083   -7.4067   10.7537 H   0  0  0  0  0  0  0  0  0  0  0  0
   -0.8325   -5.9378   10.1443 H   0  0  0  0  0  0  0  0  0  0  0  0
   -2.3745   -6.4584    9.4803 H   0  0  0  0  0  0  0  0  0  0  0  0
   -3.5917   -4.6294    9.1267 H   0  0  0  0  0  0  0  0  0  0  0  0
   -1.6046   -3.1604   12.6314 H   0  0  0  0  0  0  0  0  0  0  0  0
   -5.9464   -1.8422    6.3273 H   0  0  0  0  0  0  0  0  0  0  0  0
   -6.7545    2.1575    7.6566 H   0  0  0  0  0  0  0  0  0  0  0  0
   -3.8427    4.3676   10.3535 H   0  0  0  0  0  0  0  0  0  0  0  0
    0.0969    2.8297   10.9940 H   0  0  0  0  0  0  0  0  0  0  0  0
    0.8143    1.5277   14.4826 H   0  0  0  0  0  0  0  0  0  0  0  0
    3.0093    4.4109   12.2135 H   0  0  0  0  0  0  0  0  0  0  0  0
    0.8970   -3.9055   11.7029 H   0  0  0  0  0  0  0  0  0  0  0  0
    5.0188   -3.7866   10.5916 H   0  0  0  0  0  0  0  0  0  0  0  0
    4.5827    3.4864    7.9066 H   0  0  0  0  0  0  0  0  0  0  0  0
    6.2728   -0.4378    7.5989 H   0  0  0  0  0  0  0  0  0  0  0  0
  1  2  2  0  0  0  0
  1131  1  0  0  0  0
  2  3  1  0  0  0  0
  2 22  1  0  0  0  0
  3  4  2  0  0  0  0
  4  5  1  0  0  0  0
  5  6  2  0  0  0  0
  5130  1  0  0  0  0
  6 52  1  0  0  0  0
  6  1  1  0  0  0  0
  7  3  1  1  0  0  0
  7  8  1  0  0  0  0
  7 11  1  0  0  0  0
  8  9  2  0  0  0  0
  9 10  1  0  0  0  0
 10  4  1  0  0  0  0
 10 50  2  0  0  0  0
 11 12  2  0  0  0  0
 11 18  1  0  0  0  0
 13 14  1  0  0  0  0
 13 12  1  0  0  0  0
 13 51  2  0  0  0  0
 14  8  1  0  0  0  0
 14 15  2  0  0  0  0
 15 16  1  0  0  0  0
 15133  1  0  0  0  0
 16 60  1  0  0  0  0
 16 17  2  0  0  0  0
 17  9  1  0  0  0  0
 17132  1  0  0  0  0
 18 19  2  0  0  0  0
 18 23  1  0  0  0  0
 19 20  1  0  0  0  0
 19135  1  0  0  0  0
 20 56  1  0  0  0  0
 20 21  2  0  0  0  0
 21 12  1  0  0  0  0
 21134  1  0  0  0  0
 24 23  1  6  0  0  0
 24 22  1  0  0  0  0
 25 26  2  0  0  0  0
 25138  1  0  0  0  0
 26 27  1  0  0  0  0
 26 46  1  0  0  0  0
 27 28  2  0  0  0  0
 28 29  1  0  0  0  0
 28 47  1  0  0  0  0
 29 30  2  0  0  0  0
 29139  1  0  0  0  0
 30 64  1  0  0  0  0
 30 25  1  0  0  0  0
 31 27  1  1  0  0  0
 31 32  1  0  0  0  0
 32 33  2  0  0  0  0
 34 35  2  0  0  0  0
 34 41  1  0  0  0  0
 34 31  1  0  0  0  0
 36 37  1  0  0  0  0
 36 35  1  0  0  0  0
 36 48  2  0  0  0  0
 37 32  1  0  0  0  0
 37 38  2  0  0  0  0
 38 39  1  0  0  0  0
 38140  1  0  0  0  0
 39 72  1  0  0  0  0
 39 40  2  0  0  0  0
 40 33  1  0  0  0  0
 40141  1  0  0  0  0
 41 42  2  0  0  0  0
 41 45  1  0  0  0  0
 42 43  1  0  0  0  0
 42136  1  0  0  0  0
 43 68  1  0  0  0  0
 43 44  2  0  0  0  0
 44 35  1  0  0  0  0
 44137  1  0  0  0  0
 45 24  1  0  0  0  0
 46 24  1  0  0  0  0
 47 33  1  0  0  0  0
 47 49  2  0  0  0  0
 52 53  1  0  0  0  0
 52 54  1  0  0  0  0
 52 55  1  0  0  0  0
 53121  1  0  0  0  0
 53122  1  0  0  0  0
 53123  1  0  0  0  0
 54127  1  0  0  0  0
 54128  1  0  0  0  0
 54129  1  0  0  0  0
 55124  1  0  0  0  0
 55125  1  0  0  0  0
 55126  1  0  0  0  0
 56 57  1  0  0  0  0
 56 58  1  0  0  0  0
 56 59  1  0  0  0  0
 57 97  1  0  0  0  0
 57 98  1  0  0  0  0
 57 99  1  0  0  0  0
 58 94  1  0  0  0  0
 58 95  1  0  0  0  0
 58 96  1  0  0  0  0
 59100  1  0  0  0  0
 59101  1  0  0  0  0
 59102  1  0  0  0  0
 60 61  1  0  0  0  0
 60 62  1  0  0  0  0
 60 63  1  0  0  0  0
 61109  1  0  0  0  0
 61110  1  0  0  0  0
 61111  1  0  0  0  0
 62106  1  0  0  0  0
 62107  1  0  0  0  0
 62108  1  0  0  0  0
 63103  1  0  0  0  0
 63104  1  0  0  0  0
 63105  1  0  0  0  0
 64 65  1  0  0  0  0
 64 66  1  0  0  0  0
 64 67  1  0  0  0  0
 65112  1  0  0  0  0
 65113  1  0  0  0  0
 65114  1  0  0  0  0
 66115  1  0  0  0  0
 66116  1  0  0  0  0
 66117  1  0  0  0  0
 67118  1  0  0  0  0
 67119  1  0  0  0  0
 67120  1  0  0  0  0
 68 69  1  0  0  0  0
 68 70  1  0  0  0  0
 68 71  1  0  0  0  0
 69 91  1  0  0  0  0
 69 92  1  0  0  0  0
 69 93  1  0  0  0  0
 70 85  1  0  0  0  0
 70 86  1  0  0  0  0
 70 87  1  0  0  0  0
 71 88  1  0  0  0  0
 71 89  1  0  0  0  0
 71 90  1  0  0  0  0
 72 73  1  0  0  0  0
 72 74  1  0  0  0  0
 72 75  1  0  0  0  0
 73 79  1  0  0  0  0
 73 80  1  0  0  0  0
 73 81  1  0  0  0  0
 74 76  1  0  0  0  0
 74 77  1  0  0  0  0
 74 78  1  0  0  0  0
 75 82  1  0  0  0  0
 75 83  1  0  0  0  0
 75 84  1  0  0  0  0
142143  2  0  0  0  0
142272  1  0  0  0  0
143144  1  0  0  0  0
143163  1  0  0  0  0
144145  2  0  0  0  0
145146  1  0  0  0  0
146147  2  0  0  0  0
146271  1  0  0  0  0
147193  1  0  0  0  0
147142  1  0  0  0  0
148144  1  1  0  0  0
148149  1  0  0  0  0
148152  1  0  0  0  0
149150  2  0  0  0  0
150151  1  0  0  0  0
151145  1  0  0  0  0
151191  2  0  0  0  0
152153  2  0  0  0  0
152159  1  0  0  0  0
154155  1  0  0  0  0
154153  1  0  0  0  0
154192  2  0  0  0  0
155149  1  0  0  0  0
155156  2  0  0  0  0
156157  1  0  0  0  0
156274  1  0  0  0  0
157201  1  0  0  0  0
157158  2  0  0  0  0
158150  1  0  0  0  0
158273  1  0  0  0  0
159160  2  0  0  0  0
159164  1  0  0  0  0
160161  1  0  0  0  0
160276  1  0  0  0  0
161197  1  0  0  0  0
161162  2  0  0  0  0
162153  1  0  0  0  0
162275  1  0  0  0  0
165164  1  6  0  0  0
165163  1  0  0  0  0
166167  2  0  0  0  0
166279  1  0  0  0  0
167168  1  0  0  0  0
167187  1  0  0  0  0
168169  2  0  0  0  0
169170  1  0  0  0  0
169188  1  0  0  0  0
170171  2  0  0  0  0
170280  1  0  0  0  0
171205  1  0  0  0  0
171166  1  0  0  0  0
172168  1  1  0  0  0
172173  1  0  0  0  0
173174  2  0  0  0  0
175176  2  0  0  0  0
175182  1  0  0  0  0
175172  1  0  0  0  0
177178  1  0  0  0  0
177176  1  0  0  0  0
177189  2  0  0  0  0
178173  1  0  0  0  0
178179  2  0  0  0  0
179180  1  0  0  0  0
179281  1  0  0  0  0
180213  1  0  0  0  0
180181  2  0  0  0  0
181174  1  0  0  0  0
181282  1  0  0  0  0
182183  2  0  0  0  0
182186  1  0  0  0  0
183184  1  0  0  0  0
183277  1  0  0  0  0
184209  1  0  0  0  0
184185  2  0  0  0  0
185176  1  0  0  0  0
185278  1  0  0  0  0
186165  1  0  0  0  0
187165  1  0  0  0  0
188174  1  0  0  0  0
188190  2  0  0  0  0
193194  1  0  0  0  0
193195  1  0  0  0  0
193196  1  0  0  0  0
194262  1  0  0  0  0
194263  1  0  0  0  0
194264  1  0  0  0  0
195268  1  0  0  0  0
195269  1  0  0  0  0
195270  1  0  0  0  0
196265  1  0  0  0  0
196266  1  0  0  0  0
196267  1  0  0  0  0
197198  1  0  0  0  0
197199  1  0  0  0  0
197200  1  0  0  0  0
198238  1  0  0  0  0
198239  1  0  0  0  0
198240  1  0  0  0  0
199235  1  0  0  0  0
199236  1  0  0  0  0
199237  1  0  0  0  0
200241  1  0  0  0  0
200242  1  0  0  0  0
200243  1  0  0  0  0
201202  1  0  0  0  0
201203  1  0  0  0  0
201204  1  0  0  0  0
202250  1  0  0  0  0
202251  1  0  0  0  0
202252  1  0  0  0  0
203247  1  0  0  0  0
203248  1  0  0  0  0
203249  1  0  0  0  0
204244  1  0  0  0  0
204245  1  0  0  0  0
204246  1  0  0  0  0
205206  1  0  0  0  0
205207  1  0  0  0  0
205208  1  0  0  0  0
206253  1  0  0  0  0
206254  1  0  0  0  0
206255  1  0  0  0  0
207256  1  0  0  0  0
207257  1  0  0  0  0
207258  1  0  0  0  0
208259  1  0  0  0  0
208260  1  0  0  0  0
208261  1  0  0  0  0
209210  1  0  0  0  0
209211  1  0  0  0  0
209212  1  0  0  0  0
210232  1  0  0  0  0
210233  1  0  0  0  0
210234  1  0  0  0  0
211226  1  0  0  0  0
211227  1  0  0  0  0
211228  1  0  0  0  0
212229  1  0  0  0  0
212230  1  0  0  0  0
212231  1  0  0  0  0
213214  1  0  0  0  0
213215  1  0  0  0  0
213216  1  0  0  0  0
214220  1  0  0  0  0
214221  1  0  0  0  0
214222  1  0  0  0  0
215217  1  0  0  0  0
215218  1  0  0  0  0
215219  1  0  0  0  0
216223  1  0  0  0  0
216224  1  0  0  0  0
216225  1  0  0  0  0
M  CHG  2  24  -1 165  -1
M  END
