 energy: -56.993190984776 gnorm: 0.000429070166 xtb: 6.7.1 (edcfbbe)
          03112514533D

282304  0     0  0            999 V2000
   -0.6599   -1.4416   -2.3478 C   0  0  0  0  0  0  0  0  0  0  0  0
   -1.2910   -0.8755   -1.2355 C   0  0  0  0  0  0  0  0  0  0  0  0
   -2.6461   -0.4025   -1.3945 C   0  0  0  0  0  0  0  0  0  0  0  0
   -3.3190   -0.8179   -2.5783 C   0  0  0  0  0  0  0  0  0  0  0  0
   -2.6443   -1.4696   -3.6089 C   0  0  0  0  0  0  0  0  0  0  0  0
   -1.3025   -1.7528   -3.5378 C   0  0  0  0  0  0  0  0  0  0  0  0
   -3.3565    0.4522   -0.4518 C   0  0  0  0  0  0  0  0  0  0  0  0
   -4.7831    0.5673   -0.5826 C   0  0  0  0  0  0  0  0  0  0  0  0
   -5.4749    0.0460   -1.7087 C   0  0  0  0  0  0  0  0  0  0  0  0
   -4.7461   -0.6068   -2.7773 C   0  0  0  0  0  0  0  0  0  0  0  0
   -2.7214    1.1983    0.6214 C   0  0  0  0  0  0  0  0  0  0  0  0
   -3.5243    1.7173    1.6786 C   0  0  0  0  0  0  0  0  0  0  0  0
   -4.9734    1.8225    1.5649 C   0  0  0  0  0  0  0  0  0  0  0  0
   -5.5822    1.2276    0.3921 C   0  0  0  0  0  0  0  0  0  0  0  0
   -6.9603    1.3232    0.2410 C   0  0  0  0  0  0  0  0  0  0  0  0
   -7.6269    0.8034   -0.8584 C   0  0  0  0  0  0  0  0  0  0  0  0
   -6.8537    0.1764   -1.8237 C   0  0  0  0  0  0  0  0  0  0  0  0
   -1.3110    1.4753    0.6940 C   0  0  0  0  0  0  0  0  0  0  0  0
   -0.7987    1.9062    1.9213 C   0  0  0  0  0  0  0  0  0  0  0  0
   -1.5813    2.2473    3.0165 C   0  0  0  0  0  0  0  0  0  0  0  0
   -2.9461    2.1990    2.8518 C   0  0  0  0  0  0  0  0  0  0  0  0
   -0.5571   -0.8483   -0.0360 O   0  0  0  0  0  0  0  0  0  0  0  0
   -0.4372    1.3687   -0.4000 O   0  0  0  0  0  0  0  0  0  0  0  0
    0.4907    0.2099   -0.1709 B   0  0  0  0  0  0  0  0  0  0  0  0
    1.7115   -2.6117   -0.4821 C   0  0  0  0  0  0  0  0  0  0  0  0
    2.2676   -1.3298   -0.5571 C   0  0  0  0  0  0  0  0  0  0  0  0
    3.6064   -1.1416   -0.0688 C   0  0  0  0  0  0  0  0  0  0  0  0
    4.3291   -2.3074    0.3009 C   0  0  0  0  0  0  0  0  0  0  0  0
    3.7208   -3.5602    0.3117 C   0  0  0  0  0  0  0  0  0  0  0  0
    2.4114   -3.7429   -0.0686 C   0  0  0  0  0  0  0  0  0  0  0  0
    4.2881    0.1437   -0.0195 C   0  0  0  0  0  0  0  0  0  0  0  0
    5.7245    0.1323   -0.0653 C   0  0  0  0  0  0  0  0  0  0  0  0
    6.4633   -1.0568    0.1699 C   0  0  0  0  0  0  0  0  0  0  0  0
    3.6214    1.4313    0.0373 C   0  0  0  0  0  0  0  0  0  0  0  0
    4.3654    2.6029   -0.2750 C   0  0  0  0  0  0  0  0  0  0  0  0
    5.8029    2.5726   -0.5203 C   0  0  0  0  0  0  0  0  0  0  0  0
    6.4775    1.3013   -0.3482 C   0  0  0  0  0  0  0  0  0  0  0  0
    7.8620    1.2428   -0.4572 C   0  0  0  0  0  0  0  0  0  0  0  0
    8.5763    0.0667   -0.2723 C   0  0  0  0  0  0  0  0  0  0  0  0
    7.8489   -1.0711    0.0517 C   0  0  0  0  0  0  0  0  0  0  0  0
    2.2476    1.6130    0.4238 C   0  0  0  0  0  0  0  0  0  0  0  0
    1.6948    2.8885    0.2782 C   0  0  0  0  0  0  0  0  0  0  0  0
    2.4096    4.0165   -0.1003 C   0  0  0  0  0  0  0  0  0  0  0  0
    3.7518    3.8517   -0.3405 C   0  0  0  0  0  0  0  0  0  0  0  0
    1.4227    0.5967    0.9376 O   0  0  0  0  0  0  0  0  0  0  0  0
    1.5135   -0.3002   -1.1451 O   0  0  0  0  0  0  0  0  0  0  0  0
    5.7623   -2.2624    0.5803 C   0  0  0  0  0  0  0  0  0  0  0  0
    6.4278    3.5901   -0.8251 O   0  0  0  0  0  0  0  0  0  0  0  0
    6.3616   -3.2025    1.1061 O   0  0  0  0  0  0  0  0  0  0  0  0
   -5.3168   -0.9854   -3.8021 O   0  0  0  0  0  0  0  0  0  0  0  0
   -5.6508    2.4211    2.4029 O   0  0  0  0  0  0  0  0  0  0  0  0
   -0.5888   -2.4523   -4.7072 C   0  0  0  0  0  0  0  0  0  0  0  0
    0.9263   -2.5830   -4.4526 C   0  0  0  0  0  0  0  0  0  0  0  0
   -0.7925   -1.6386   -6.0000 C   0  0  0  0  0  0  0  0  0  0  0  0
   -1.1761   -3.8650   -4.8871 C   0  0  0  0  0  0  0  0  0  0  0  0
   -0.9110    2.7324    4.3115 C   0  0  0  0  0  0  0  0  0  0  0  0
   -0.1202    4.0207    4.0187 C   0  0  0  0  0  0  0  0  0  0  0  0
   -1.9491    3.0231    5.4132 C   0  0  0  0  0  0  0  0  0  0  0  0
    0.0509    1.6489    4.8322 C   0  0  0  0  0  0  0  0  0  0  0  0
   -9.1517    0.9263   -1.0424 C   0  0  0  0  0  0  0  0  0  0  0  0
   -9.4479    1.8013   -2.2761 C   0  0  0  0  0  0  0  0  0  0  0  0
   -9.8285    1.5701    0.1864 C   0  0  0  0  0  0  0  0  0  0  0  0
   -9.7632   -0.4751   -1.2455 C   0  0  0  0  0  0  0  0  0  0  0  0
    1.8551   -5.1737   -0.2152 C   0  0  0  0  0  0  0  0  0  0  0  0
    0.3265   -5.1928   -0.4132 C   0  0  0  0  0  0  0  0  0  0  0  0
    2.1907   -6.0158    1.0346 C   0  0  0  0  0  0  0  0  0  0  0  0
    2.5071   -5.8242   -1.4506 C   0  0  0  0  0  0  0  0  0  0  0  0
    1.7632    5.4089   -0.1997 C   0  0  0  0  0  0  0  0  0  0  0  0
    2.3415    6.3149    0.9030 C   0  0  0  0  0  0  0  0  0  0  0  0
    2.0609    6.0216   -1.5822 C   0  0  0  0  0  0  0  0  0  0  0  0
    0.2325    5.3404   -0.0245 C   0  0  0  0  0  0  0  0  0  0  0  0
   10.1122    0.0677   -0.3995 C   0  0  0  0  0  0  0  0  0  0  0  0
   10.7208    1.0118    0.6578 C   0  0  0  0  0  0  0  0  0  0  0  0
   10.7093   -1.3400   -0.1893 C   0  0  0  0  0  0  0  0  0  0  0  0
   10.5081    0.5529   -1.8089 C   0  0  0  0  0  0  0  0  0  0  0  0
   -1.4598    3.3182    6.3434 H   0  0  0  0  0  0  0  0  0  0  0  0
   -2.5471    2.1359    5.6271 H   0  0  0  0  0  0  0  0  0  0  0  0
   -2.6222    3.8323    5.1232 H   0  0  0  0  0  0  0  0  0  0  0  0
    0.5189    1.9585    5.7684 H   0  0  0  0  0  0  0  0  0  0  0  0
    0.8480    1.4407    4.1172 H   0  0  0  0  0  0  0  0  0  0  0  0
   -0.4862    0.7187    5.0224 H   0  0  0  0  0  0  0  0  0  0  0  0
    0.3781    4.3913    4.9159 H   0  0  0  0  0  0  0  0  0  0  0  0
   -0.7819    4.8066    3.6491 H   0  0  0  0  0  0  0  0  0  0  0  0
    0.6491    3.8484    3.2645 H   0  0  0  0  0  0  0  0  0  0  0  0
   -0.2173    6.3296   -0.1353 H   0  0  0  0  0  0  0  0  0  0  0  0
   -0.0369    4.9692    0.9657 H   0  0  0  0  0  0  0  0  0  0  0  0
   -0.2190    4.6857   -0.7721 H   0  0  0  0  0  0  0  0  0  0  0  0
    1.8965    7.3123    0.8679 H   0  0  0  0  0  0  0  0  0  0  0  0
    3.4221    6.4271    0.7960 H   0  0  0  0  0  0  0  0  0  0  0  0
    2.1459    5.8931    1.8911 H   0  0  0  0  0  0  0  0  0  0  0  0
    1.5835    6.9986   -1.6909 H   0  0  0  0  0  0  0  0  0  0  0  0
    1.6881    5.3745   -2.3787 H   0  0  0  0  0  0  0  0  0  0  0  0
    3.1325    6.1595   -1.7366 H   0  0  0  0  0  0  0  0  0  0  0  0
   11.8099    1.0514    0.5697 H   0  0  0  0  0  0  0  0  0  0  0  0
   10.4831    0.6736    1.6689 H   0  0  0  0  0  0  0  0  0  0  0  0
   10.3424    2.0300    0.5480 H   0  0  0  0  0  0  0  0  0  0  0  0
   11.7967   -1.3244   -0.3040 H   0  0  0  0  0  0  0  0  0  0  0  0
   10.3131   -2.0497   -0.9190 H   0  0  0  0  0  0  0  0  0  0  0  0
   10.4940   -1.7176    0.8128 H   0  0  0  0  0  0  0  0  0  0  0  0
   11.5936    0.5446   -1.9394 H   0  0  0  0  0  0  0  0  0  0  0  0
   10.1614    1.5718   -1.9913 H   0  0  0  0  0  0  0  0  0  0  0  0
   10.0732   -0.0908   -2.5769 H   0  0  0  0  0  0  0  0  0  0  0  0
   -0.2709   -2.1001   -6.8423 H   0  0  0  0  0  0  0  0  0  0  0  0
   -0.4078   -0.6237   -5.8813 H   0  0  0  0  0  0  0  0  0  0  0  0
   -1.8489   -1.5672   -6.2651 H   0  0  0  0  0  0  0  0  0  0  0  0
   -0.6828   -4.3963   -5.7048 H   0  0  0  0  0  0  0  0  0  0  0  0
   -2.2437   -3.8243   -5.1118 H   0  0  0  0  0  0  0  0  0  0  0  0
   -1.0487   -4.4549   -3.9770 H   0  0  0  0  0  0  0  0  0  0  0  0
    1.4256   -3.0527   -5.3030 H   0  0  0  0  0  0  0  0  0  0  0  0
    1.1277   -3.1992   -3.5746 H   0  0  0  0  0  0  0  0  0  0  0  0
    1.3843   -1.6043   -4.2986 H   0  0  0  0  0  0  0  0  0  0  0  0
   -0.0359   -6.2173   -0.5280 H   0  0  0  0  0  0  0  0  0  0  0  0
    0.0314   -4.6450   -1.3098 H   0  0  0  0  0  0  0  0  0  0  0  0
   -0.1900   -4.7628    0.4446 H   0  0  0  0  0  0  0  0  0  0  0  0
    2.1478   -6.8460   -1.5958 H   0  0  0  0  0  0  0  0  0  0  0  0
    3.5934   -5.8624   -1.3476 H   0  0  0  0  0  0  0  0  0  0  0  0
    2.2780   -5.2546   -2.3534 H   0  0  0  0  0  0  0  0  0  0  0  0
    1.7349   -7.0073    0.9721 H   0  0  0  0  0  0  0  0  0  0  0  0
    1.8257   -5.5382    1.9452 H   0  0  0  0  0  0  0  0  0  0  0  0
    3.2666   -6.1607    1.1442 H   0  0  0  0  0  0  0  0  0  0  0  0
  -10.5242    1.9148   -2.4315 H   0  0  0  0  0  0  0  0  0  0  0  0
   -9.0255    1.3633   -3.1827 H   0  0  0  0  0  0  0  0  0  0  0  0
   -9.0189    2.7988   -2.1562 H   0  0  0  0  0  0  0  0  0  0  0  0
  -10.8501   -0.4201   -1.3500 H   0  0  0  0  0  0  0  0  0  0  0  0
   -9.5405   -1.1217   -0.3938 H   0  0  0  0  0  0  0  0  0  0  0  0
   -9.3700   -0.9566   -2.1427 H   0  0  0  0  0  0  0  0  0  0  0  0
  -10.9111    1.6371    0.0478 H   0  0  0  0  0  0  0  0  0  0  0  0
   -9.4591    2.5834    0.3602 H   0  0  0  0  0  0  0  0  0  0  0  0
   -9.6497    0.9766    1.0854 H   0  0  0  0  0  0  0  0  0  0  0  0
   -7.5136    1.8273    1.0119 H   0  0  0  0  0  0  0  0  0  0  0  0
   -7.3257   -0.2245   -2.7033 H   0  0  0  0  0  0  0  0  0  0  0  0
   -3.2023   -1.7429   -4.4872 H   0  0  0  0  0  0  0  0  0  0  0  0
    0.3931   -1.6233   -2.2823 H   0  0  0  0  0  0  0  0  0  0  0  0
   -3.6032    2.5329    3.6348 H   0  0  0  0  0  0  0  0  0  0  0  0
    0.2657    1.9744    2.0349 H   0  0  0  0  0  0  0  0  0  0  0  0
    0.6410    2.9958    0.4316 H   0  0  0  0  0  0  0  0  0  0  0  0
    4.3597    4.7034   -0.5906 H   0  0  0  0  0  0  0  0  0  0  0  0
    8.3881    2.1523   -0.6872 H   0  0  0  0  0  0  0  0  0  0  0  0
    8.3542   -2.0062    0.2123 H   0  0  0  0  0  0  0  0  0  0  0  0
    4.3270   -4.4093    0.5732 H   0  0  0  0  0  0  0  0  0  0  0  0
    0.6875   -2.7329   -0.7707 H   0  0  0  0  0  0  0  0  0  0  0  0
   -1.5073   -1.9162    5.2812 C   0  0  0  0  0  0  0  0  0  0  0  0
   -2.2197   -1.3247    6.3443 C   0  0  0  0  0  0  0  0  0  0  0  0
   -3.4245   -0.5958    6.0102 C   0  0  0  0  0  0  0  0  0  0  0  0
   -3.9134   -0.8003    4.6879 C   0  0  0  0  0  0  0  0  0  0  0  0
   -3.1588   -1.4002    3.6990 C   0  0  0  0  0  0  0  0  0  0  0  0
   -1.9103   -1.9219    3.9663 C   0  0  0  0  0  0  0  0  0  0  0  0
   -4.1460    0.3144    6.8776 C   0  0  0  0  0  0  0  0  0  0  0  0
   -5.4233    0.8253    6.4462 C   0  0  0  0  0  0  0  0  0  0  0  0
   -5.9133    0.5729    5.1477 C   0  0  0  0  0  0  0  0  0  0  0  0
   -5.2493   -0.3857    4.2900 C   0  0  0  0  0  0  0  0  0  0  0  0
   -3.6575    0.8098    8.1405 C   0  0  0  0  0  0  0  0  0  0  0  0
   -4.5568    1.3596    9.0946 C   0  0  0  0  0  0  0  0  0  0  0  0
   -5.8897    1.8007    8.6899 C   0  0  0  0  0  0  0  0  0  0  0  0
   -6.2252    1.6474    7.2767 C   0  0  0  0  0  0  0  0  0  0  0  0
   -7.3333    2.3006    6.7541 C   0  0  0  0  0  0  0  0  0  0  0  0
   -7.7120    2.1582    5.4246 C   0  0  0  0  0  0  0  0  0  0  0  0
   -7.0098    1.2484    4.6541 C   0  0  0  0  0  0  0  0  0  0  0  0
   -2.2709    0.7879    8.5154 C   0  0  0  0  0  0  0  0  0  0  0  0
   -1.9621    0.8278    9.8874 C   0  0  0  0  0  0  0  0  0  0  0  0
   -2.8860    1.1956   10.8462 C   0  0  0  0  0  0  0  0  0  0  0  0
   -4.1621    1.5276   10.4125 C   0  0  0  0  0  0  0  0  0  0  0  0
   -1.6662   -1.4622    7.6180 O   0  0  0  0  0  0  0  0  0  0  0  0
   -1.2697    0.7660    7.5618 O   0  0  0  0  0  0  0  0  0  0  0  0
   -0.5188   -0.4928    7.6893 B   0  0  0  0  0  0  0  0  0  0  0  0
    0.4867   -3.2235    7.3489 C   0  0  0  0  0  0  0  0  0  0  0  0
    1.1064   -1.9916    7.0848 C   0  0  0  0  0  0  0  0  0  0  0  0
    2.5205   -1.9088    7.2316 C   0  0  0  0  0  0  0  0  0  0  0  0
    3.2436   -3.1277    7.2006 C   0  0  0  0  0  0  0  0  0  0  0  0
    2.5826   -4.3362    7.3568 C   0  0  0  0  0  0  0  0  0  0  0  0
    1.2006   -4.3970    7.4973 C   0  0  0  0  0  0  0  0  0  0  0  0
    3.1887   -0.6355    7.2905 C   0  0  0  0  0  0  0  0  0  0  0  0
    4.5171   -0.6183    6.7401 C   0  0  0  0  0  0  0  0  0  0  0  0
    5.1882   -1.8213    6.4015 C   0  0  0  0  0  0  0  0  0  0  0  0
    2.5916    0.5879    7.7839 C   0  0  0  0  0  0  0  0  0  0  0  0
    3.3050    1.8025    7.5780 C   0  0  0  0  0  0  0  0  0  0  0  0
    4.6101    1.8471    6.9181 C   0  0  0  0  0  0  0  0  0  0  0  0
    5.1580    0.5956    6.4221 C   0  0  0  0  0  0  0  0  0  0  0  0
    6.2796    0.5952    5.6121 C   0  0  0  0  0  0  0  0  0  0  0  0
    6.8184   -0.5821    5.1098 C   0  0  0  0  0  0  0  0  0  0  0  0
    6.3060   -1.7830    5.5842 C   0  0  0  0  0  0  0  0  0  0  0  0
    1.3382    0.6888    8.5111 C   0  0  0  0  0  0  0  0  0  0  0  0
    0.9034    1.9704    8.8928 C   0  0  0  0  0  0  0  0  0  0  0  0
    1.5877    3.1352    8.6375 C   0  0  0  0  0  0  0  0  0  0  0  0
    2.7994    3.0223    7.9877 C   0  0  0  0  0  0  0  0  0  0  0  0
    0.4493   -0.3426    8.8352 O   0  0  0  0  0  0  0  0  0  0  0  0
    0.4252   -0.8761    6.6376 O   0  0  0  0  0  0  0  0  0  0  0  0
    4.6691   -3.1050    6.8827 C   0  0  0  0  0  0  0  0  0  0  0  0
    5.2331    2.8942    6.8107 O   0  0  0  0  0  0  0  0  0  0  0  0
    5.3728   -4.1000    6.9769 O   0  0  0  0  0  0  0  0  0  0  0  0
   -5.7948   -0.8530    3.3008 O   0  0  0  0  0  0  0  0  0  0  0  0
   -6.6754    2.2919    9.4884 O   0  0  0  0  0  0  0  0  0  0  0  0
   -0.9631   -2.3928    2.8562 C   0  0  0  0  0  0  0  0  0  0  0  0
   -0.2985   -3.7254    3.2391 C   0  0  0  0  0  0  0  0  0  0  0  0
    0.1313   -1.3277    2.6494 C   0  0  0  0  0  0  0  0  0  0  0  0
   -1.7337   -2.5841    1.5367 C   0  0  0  0  0  0  0  0  0  0  0  0
   -2.5286    1.3035   12.3356 C   0  0  0  0  0  0  0  0  0  0  0  0
   -2.7205    2.7575   12.8033 C   0  0  0  0  0  0  0  0  0  0  0  0
   -3.4496    0.3734   13.1452 C   0  0  0  0  0  0  0  0  0  0  0  0
   -1.0667    0.8946   12.5999 C   0  0  0  0  0  0  0  0  0  0  0  0
   -8.7832    3.0210    4.7476 C   0  0  0  0  0  0  0  0  0  0  0  0
   -8.0951    3.8852    3.6712 C   0  0  0  0  0  0  0  0  0  0  0  0
   -9.4896    3.9469    5.7540 C   0  0  0  0  0  0  0  0  0  0  0  0
   -9.8368    2.1127    4.0898 C   0  0  0  0  0  0  0  0  0  0  0  0
    0.4444   -5.7162    7.7008 C   0  0  0  0  0  0  0  0  0  0  0  0
   -0.4097   -6.0018    6.4528 C   0  0  0  0  0  0  0  0  0  0  0  0
   -0.4663   -5.5976    8.9368 C   0  0  0  0  0  0  0  0  0  0  0  0
    1.4099   -6.8958    7.9194 C   0  0  0  0  0  0  0  0  0  0  0  0
    1.0393    4.5158    9.0245 C   0  0  0  0  0  0  0  0  0  0  0  0
    2.0212    5.2004    9.9909 C   0  0  0  0  0  0  0  0  0  0  0  0
    0.8771    5.3677    7.7540 C   0  0  0  0  0  0  0  0  0  0  0  0
   -0.3351    4.4089    9.7128 C   0  0  0  0  0  0  0  0  0  0  0  0
    7.9046   -0.5224    4.0285 C   0  0  0  0  0  0  0  0  0  0  0  0
    9.2380   -0.1129    4.6714 C   0  0  0  0  0  0  0  0  0  0  0  0
    8.0765   -1.8841    3.3248 C   0  0  0  0  0  0  0  0  0  0  0  0
    7.4980    0.5139    2.9603 C   0  0  0  0  0  0  0  0  0  0  0  0
   -3.2112    0.4146   14.2082 H   0  0  0  0  0  0  0  0  0  0  0  0
   -3.3400   -0.6589   12.8138 H   0  0  0  0  0  0  0  0  0  0  0  0
   -4.4957    0.6534   13.0266 H   0  0  0  0  0  0  0  0  0  0  0  0
   -0.8311    0.9632   13.6620 H   0  0  0  0  0  0  0  0  0  0  0  0
   -0.3740    1.5451   12.0668 H   0  0  0  0  0  0  0  0  0  0  0  0
   -0.8848   -0.1331   12.2871 H   0  0  0  0  0  0  0  0  0  0  0  0
   -2.4513    2.8689   13.8539 H   0  0  0  0  0  0  0  0  0  0  0  0
   -3.7556    3.0765   12.6892 H   0  0  0  0  0  0  0  0  0  0  0  0
   -2.0965    3.4352   12.2219 H   0  0  0  0  0  0  0  0  0  0  0  0
   -0.7140    5.3958    9.9771 H   0  0  0  0  0  0  0  0  0  0  0  0
   -0.2682    3.8246   10.6295 H   0  0  0  0  0  0  0  0  0  0  0  0
   -1.0671    3.9402    9.0556 H   0  0  0  0  0  0  0  0  0  0  0  0
    1.6513    6.1795   10.2952 H   0  0  0  0  0  0  0  0  0  0  0  0
    2.9967    5.3415    9.5275 H   0  0  0  0  0  0  0  0  0  0  0  0
    2.1604    4.5979   10.8882 H   0  0  0  0  0  0  0  0  0  0  0  0
    0.4997    6.3612    7.9936 H   0  0  0  0  0  0  0  0  0  0  0  0
    0.1738    4.8964    7.0703 H   0  0  0  0  0  0  0  0  0  0  0  0
    1.8245    5.4854    7.2304 H   0  0  0  0  0  0  0  0  0  0  0  0
   10.0314   -0.0658    3.9267 H   0  0  0  0  0  0  0  0  0  0  0  0
    9.5336   -0.8307    5.4360 H   0  0  0  0  0  0  0  0  0  0  0  0
    9.1587    0.8662    5.1423 H   0  0  0  0  0  0  0  0  0  0  0  0
    8.8158   -1.8126    2.5294 H   0  0  0  0  0  0  0  0  0  0  0  0
    7.1430   -2.2186    2.8697 H   0  0  0  0  0  0  0  0  0  0  0  0
    8.4188   -2.6513    4.0171 H   0  0  0  0  0  0  0  0  0  0  0  0
    8.2170    0.5338    2.1448 H   0  0  0  0  0  0  0  0  0  0  0  0
    7.4435    1.5212    3.3681 H   0  0  0  0  0  0  0  0  0  0  0  0
    6.5230    0.2702    2.5387 H   0  0  0  0  0  0  0  0  0  0  0  0
    0.8270   -1.6138    1.8598 H   0  0  0  0  0  0  0  0  0  0  0  0
    0.7007   -1.1545    3.5617 H   0  0  0  0  0  0  0  0  0  0  0  0
   -0.3099   -0.3823    2.3396 H   0  0  0  0  0  0  0  0  0  0  0  0
   -1.0630   -2.8999    0.7406 H   0  0  0  0  0  0  0  0  0  0  0  0
   -2.1653   -1.6419    1.1977 H   0  0  0  0  0  0  0  0  0  0  0  0
   -2.5276   -3.3227    1.6360 H   0  0  0  0  0  0  0  0  0  0  0  0
    0.3596   -4.0601    2.4408 H   0  0  0  0  0  0  0  0  0  0  0  0
   -1.0461   -4.4980    3.4133 H   0  0  0  0  0  0  0  0  0  0  0  0
    0.3108   -3.6290    4.1360 H   0  0  0  0  0  0  0  0  0  0  0  0
   -0.9539   -6.9400    6.5577 H   0  0  0  0  0  0  0  0  0  0  0  0
    0.2183   -6.0725    5.5653 H   0  0  0  0  0  0  0  0  0  0  0  0
   -1.1383   -5.2099    6.2840 H   0  0  0  0  0  0  0  0  0  0  0  0
    0.8592   -7.8182    8.1044 H   0  0  0  0  0  0  0  0  0  0  0  0
    2.0570   -6.7169    8.7777 H   0  0  0  0  0  0  0  0  0  0  0  0
    2.0359   -7.0583    7.0427 H   0  0  0  0  0  0  0  0  0  0  0  0
   -0.9976   -6.5311    9.1214 H   0  0  0  0  0  0  0  0  0  0  0  0
   -1.2101   -4.8126    8.8081 H   0  0  0  0  0  0  0  0  0  0  0  0
    0.1195   -5.3607    9.8244 H   0  0  0  0  0  0  0  0  0  0  0  0
   -8.8214    4.4803    3.1194 H   0  0  0  0  0  0  0  0  0  0  0  0
   -7.5460    3.2712    2.9570 H   0  0  0  0  0  0  0  0  0  0  0  0
   -7.3746    4.5621    4.1280 H   0  0  0  0  0  0  0  0  0  0  0  0
  -10.6099    2.7034    3.5993 H   0  0  0  0  0  0  0  0  0  0  0  0
  -10.3162    1.4768    4.8333 H   0  0  0  0  0  0  0  0  0  0  0  0
   -9.3866    1.4672    3.3383 H   0  0  0  0  0  0  0  0  0  0  0  0
  -10.2504    4.5494    5.2577 H   0  0  0  0  0  0  0  0  0  0  0  0
   -8.7810    4.6297    6.2217 H   0  0  0  0  0  0  0  0  0  0  0  0
   -9.9807    3.3704    6.5375 H   0  0  0  0  0  0  0  0  0  0  0  0
   -7.8823    2.9518    7.4084 H   0  0  0  0  0  0  0  0  0  0  0  0
   -7.2394    1.1088    3.6111 H   0  0  0  0  0  0  0  0  0  0  0  0
   -3.5718   -1.4166    2.7060 H   0  0  0  0  0  0  0  0  0  0  0  0
   -0.5458   -2.3279    5.5010 H   0  0  0  0  0  0  0  0  0  0  0  0
   -4.8850    1.9076   11.1107 H   0  0  0  0  0  0  0  0  0  0  0  0
   -0.9687    0.5527   10.1804 H   0  0  0  0  0  0  0  0  0  0  0  0
   -0.0534    2.0403    9.3627 H   0  0  0  0  0  0  0  0  0  0  0  0
    3.3769    3.9028    7.7717 H   0  0  0  0  0  0  0  0  0  0  0  0
    6.7014    1.5458    5.3416 H   0  0  0  0  0  0  0  0  0  0  0  0
    6.7364   -2.7206    5.2853 H   0  0  0  0  0  0  0  0  0  0  0  0
    3.1730   -5.2331    7.3446 H   0  0  0  0  0  0  0  0  0  0  0  0
   -0.5839   -3.2474    7.4030 H   0  0  0  0  0  0  0  0  0  0  0  0
  1  2  2  0  0  0  0
  1133  1  0  0  0  0
  2  3  1  0  0  0  0
  2 22  1  0  0  0  0
  3  4  2  0  0  0  0
  3  7  1  0  0  0  0
  4  5  1  0  0  0  0
  5  6  2  0  0  0  0
  5132  1  0  0  0  0
  6 52  1  0  0  0  0
  6  1  1  0  0  0  0
  7  8  1  0  0  0  0
  7 11  1  0  0  0  0
  8  9  2  0  0  0  0
  9 10  1  0  0  0  0
 10  4  1  0  0  0  0
 10 50  2  0  0  0  0
 11 12  2  0  0  0  0
 11 18  1  0  0  0  0
 13 14  1  0  0  0  0
 13 12  1  0  0  0  0
 13 51  2  0  0  0  0
 14  8  1  0  0  0  0
 14 15  2  0  0  0  0
 15 16  1  0  0  0  0
 15130  1  0  0  0  0
 16 60  1  0  0  0  0
 16 17  2  0  0  0  0
 17  9  1  0  0  0  0
 17131  1  0  0  0  0
 18 19  2  0  0  0  0
 18 23  1  0  0  0  0
 19 20  1  0  0  0  0
 19135  1  0  0  0  0
 20 56  1  0  0  0  0
 20 21  2  0  0  0  0
 21 12  1  0  0  0  0
 21134  1  0  0  0  0
 24 23  1  0  0  0  0
 24 22  1  0  0  0  0
 25 26  2  0  0  0  0
 25141  1  0  0  0  0
 26 27  1  0  0  0  0
 26 46  1  0  0  0  0
 27 28  2  0  0  0  0
 27 31  1  0  0  0  0
 28 29  1  0  0  0  0
 28 47  1  0  0  0  0
 29 30  2  0  0  0  0
 29140  1  0  0  0  0
 30 64  1  0  0  0  0
 30 25  1  0  0  0  0
 31 32  1  0  0  0  0
 32 33  2  0  0  0  0
 34 35  2  0  0  0  0
 34 41  1  0  0  0  0
 34 31  1  0  0  0  0
 36 37  1  0  0  0  0
 36 35  1  0  0  0  0
 36 48  2  0  0  0  0
 37 32  1  0  0  0  0
 37 38  2  0  0  0  0
 38 39  1  0  0  0  0
 38138  1  0  0  0  0
 39 72  1  0  0  0  0
 39 40  2  0  0  0  0
 40 33  1  0  0  0  0
 40139  1  0  0  0  0
 41 42  2  0  0  0  0
 41 45  1  0  0  0  0
 42 43  1  0  0  0  0
 42136  1  0  0  0  0
 43 68  1  0  0  0  0
 43 44  2  0  0  0  0
 44 35  1  0  0  0  0
 44137  1  0  0  0  0
 45 24  1  0  0  0  0
 46 24  1  0  0  0  0
 47 33  1  0  0  0  0
 47 49  2  0  0  0  0
 52 53  1  0  0  0  0
 52 54  1  0  0  0  0
 52 55  1  0  0  0  0
 53109  1  0  0  0  0
 53110  1  0  0  0  0
 53111  1  0  0  0  0
 54103  1  0  0  0  0
 54104  1  0  0  0  0
 54105  1  0  0  0  0
 55106  1  0  0  0  0
 55107  1  0  0  0  0
 55108  1  0  0  0  0
 56 57  1  0  0  0  0
 56 58  1  0  0  0  0
 56 59  1  0  0  0  0
 57 82  1  0  0  0  0
 57 83  1  0  0  0  0
 57 84  1  0  0  0  0
 58 76  1  0  0  0  0
 58 77  1  0  0  0  0
 58 78  1  0  0  0  0
 59 79  1  0  0  0  0
 59 80  1  0  0  0  0
 59 81  1  0  0  0  0
 60 61  1  0  0  0  0
 60 62  1  0  0  0  0
 60 63  1  0  0  0  0
 61121  1  0  0  0  0
 61122  1  0  0  0  0
 61123  1  0  0  0  0
 62127  1  0  0  0  0
 62128  1  0  0  0  0
 62129  1  0  0  0  0
 63124  1  0  0  0  0
 63125  1  0  0  0  0
 63126  1  0  0  0  0
 64 65  1  0  0  0  0
 64 66  1  0  0  0  0
 64 67  1  0  0  0  0
 65112  1  0  0  0  0
 65113  1  0  0  0  0
 65114  1  0  0  0  0
 66118  1  0  0  0  0
 66119  1  0  0  0  0
 66120  1  0  0  0  0
 67115  1  0  0  0  0
 67116  1  0  0  0  0
 67117  1  0  0  0  0
 68 69  1  0  0  0  0
 68 70  1  0  0  0  0
 68 71  1  0  0  0  0
 69 88  1  0  0  0  0
 69 89  1  0  0  0  0
 69 90  1  0  0  0  0
 70 91  1  0  0  0  0
 70 92  1  0  0  0  0
 70 93  1  0  0  0  0
 71 85  1  0  0  0  0
 71 86  1  0  0  0  0
 71 87  1  0  0  0  0
 72 73  1  0  0  0  0
 72 74  1  0  0  0  0
 72 75  1  0  0  0  0
 73 94  1  0  0  0  0
 73 95  1  0  0  0  0
 73 96  1  0  0  0  0
 74 97  1  0  0  0  0
 74 98  1  0  0  0  0
 74 99  1  0  0  0  0
 75100  1  0  0  0  0
 75101  1  0  0  0  0
 75102  1  0  0  0  0
142143  2  0  0  0  0
142274  1  0  0  0  0
143144  1  0  0  0  0
143163  1  0  0  0  0
144145  2  0  0  0  0
144148  1  0  0  0  0
145146  1  0  0  0  0
146147  2  0  0  0  0
146273  1  0  0  0  0
147193  1  0  0  0  0
147142  1  0  0  0  0
148149  1  0  0  0  0
148152  1  0  0  0  0
149150  2  0  0  0  0
150151  1  0  0  0  0
151145  1  0  0  0  0
151191  2  0  0  0  0
152153  2  0  0  0  0
152159  1  0  0  0  0
154155  1  0  0  0  0
154153  1  0  0  0  0
154192  2  0  0  0  0
155149  1  0  0  0  0
155156  2  0  0  0  0
156157  1  0  0  0  0
156271  1  0  0  0  0
157201  1  0  0  0  0
157158  2  0  0  0  0
158150  1  0  0  0  0
158272  1  0  0  0  0
159160  2  0  0  0  0
159164  1  0  0  0  0
160161  1  0  0  0  0
160276  1  0  0  0  0
161197  1  0  0  0  0
161162  2  0  0  0  0
162153  1  0  0  0  0
162275  1  0  0  0  0
165164  1  0  0  0  0
165163  1  0  0  0  0
166167  2  0  0  0  0
166282  1  0  0  0  0
167168  1  0  0  0  0
167187  1  0  0  0  0
168169  2  0  0  0  0
168172  1  0  0  0  0
169170  1  0  0  0  0
169188  1  0  0  0  0
170171  2  0  0  0  0
170281  1  0  0  0  0
171205  1  0  0  0  0
171166  1  0  0  0  0
172173  1  0  0  0  0
173174  2  0  0  0  0
175176  2  0  0  0  0
175182  1  0  0  0  0
175172  1  0  0  0  0
177178  1  0  0  0  0
177176  1  0  0  0  0
177189  2  0  0  0  0
178173  1  0  0  0  0
178179  2  0  0  0  0
179180  1  0  0  0  0
179279  1  0  0  0  0
180213  1  0  0  0  0
180181  2  0  0  0  0
181174  1  0  0  0  0
181280  1  0  0  0  0
182183  2  0  0  0  0
182186  1  0  0  0  0
183184  1  0  0  0  0
183277  1  0  0  0  0
184209  1  0  0  0  0
184185  2  0  0  0  0
185176  1  0  0  0  0
185278  1  0  0  0  0
186165  1  0  0  0  0
187165  1  0  0  0  0
188174  1  0  0  0  0
188190  2  0  0  0  0
193194  1  0  0  0  0
193195  1  0  0  0  0
193196  1  0  0  0  0
194250  1  0  0  0  0
194251  1  0  0  0  0
194252  1  0  0  0  0
195244  1  0  0  0  0
195245  1  0  0  0  0
195246  1  0  0  0  0
196247  1  0  0  0  0
196248  1  0  0  0  0
196249  1  0  0  0  0
197198  1  0  0  0  0
197199  1  0  0  0  0
197200  1  0  0  0  0
198223  1  0  0  0  0
198224  1  0  0  0  0
198225  1  0  0  0  0
199217  1  0  0  0  0
199218  1  0  0  0  0
199219  1  0  0  0  0
200220  1  0  0  0  0
200221  1  0  0  0  0
200222  1  0  0  0  0
201202  1  0  0  0  0
201203  1  0  0  0  0
201204  1  0  0  0  0
202262  1  0  0  0  0
202263  1  0  0  0  0
202264  1  0  0  0  0
203268  1  0  0  0  0
203269  1  0  0  0  0
203270  1  0  0  0  0
204265  1  0  0  0  0
204266  1  0  0  0  0
204267  1  0  0  0  0
205206  1  0  0  0  0
205207  1  0  0  0  0
205208  1  0  0  0  0
206253  1  0  0  0  0
206254  1  0  0  0  0
206255  1  0  0  0  0
207259  1  0  0  0  0
207260  1  0  0  0  0
207261  1  0  0  0  0
208256  1  0  0  0  0
208257  1  0  0  0  0
208258  1  0  0  0  0
209210  1  0  0  0  0
209211  1  0  0  0  0
209212  1  0  0  0  0
210229  1  0  0  0  0
210230  1  0  0  0  0
210231  1  0  0  0  0
211232  1  0  0  0  0
211233  1  0  0  0  0
211234  1  0  0  0  0
212226  1  0  0  0  0
212227  1  0  0  0  0
212228  1  0  0  0  0
213214  1  0  0  0  0
213215  1  0  0  0  0
213216  1  0  0  0  0
214235  1  0  0  0  0
214236  1  0  0  0  0
214237  1  0  0  0  0
215238  1  0  0  0  0
215239  1  0  0  0  0
215240  1  0  0  0  0
216241  1  0  0  0  0
216242  1  0  0  0  0
216243  1  0  0  0  0
M  CHG  1  24  -1
M  CHG  1  31  -1
M  CHG  1 165  -1
M  CHG  1 172  -1
M  END
