energy: -209.478132982826 gnorm: 0.000104881761 xtb: 6.7.1 (edcfbbe)_energy: -209.478132982826 gnorm: 0.000104881761 xtb: 6.7.1 (edcfbbe)
 OpenBabel03112514533D

282304  0  0  0  0  0  0  0  0999 V2000
   -1.2531   -2.5315   -1.1623 C   0  0  0  0  0  0  0  0  0  0  0  0
   -1.7757   -1.4137   -0.5124 C   0  0  0  0  0  0  0  0  0  0  0  0
   -2.9222   -0.7608   -1.0737 C   0  0  0  0  0  0  0  0  0  0  0  0
   -3.4521   -1.3546   -2.2543 C   0  0  0  0  0  0  0  0  0  0  0  0
   -2.8491   -2.4394   -2.8841 C   0  0  0  0  0  0  0  0  0  0  0  0
   -1.7328   -3.0489   -2.3568 C   0  0  0  0  0  0  0  0  0  0  0  0
   -3.6367    0.3613   -0.5190 C   0  0  0  0  0  0  0  0  0  0  0  0
   -4.9687    0.6042   -0.9429 C   0  0  0  0  0  0  0  0  0  0  0  0
   -5.4968    0.0213   -2.1176 C   0  0  0  0  0  0  0  0  0  0  0  0
   -4.6810   -0.8961   -2.8985 C   0  0  0  0  0  0  0  0  0  0  0  0
   -3.1412    1.2035    0.5235 C   0  0  0  0  0  0  0  0  0  0  0  0
   -4.0351    1.9010    1.3739 C   0  0  0  0  0  0  0  0  0  0  0  0
   -5.4445    2.0452    1.0452 C   0  0  0  0  0  0  0  0  0  0  0  0
   -5.8487    1.4533   -0.2254 C   0  0  0  0  0  0  0  0  0  0  0  0
   -7.1418    1.6950   -0.6752 C   0  0  0  0  0  0  0  0  0  0  0  0
   -7.6385    1.1447   -1.8464 C   0  0  0  0  0  0  0  0  0  0  0  0
   -6.7830    0.3060   -2.5504 C   0  0  0  0  0  0  0  0  0  0  0  0
   -1.7585    1.3477    0.7977 C   0  0  0  0  0  0  0  0  0  0  0  0
   -1.3877    1.7485    2.0806 C   0  0  0  0  0  0  0  0  0  0  0  0
   -2.2842    2.3088    2.9849 C   0  0  0  0  0  0  0  0  0  0  0  0
   -3.5905    2.4704    2.5649 C   0  0  0  0  0  0  0  0  0  0  0  0
   -1.1219   -1.0386    0.6314 O   0  0  0  0  0  0  0  0  0  0  0  0
   -0.8406    1.0869   -0.1685 O   0  0  0  0  0  0  0  0  0  0  0  0
    0.0016   -0.0491    0.2321 B   0  5  0  0  0  0  0  0  0  0  0  0
    1.3166   -2.5906    0.7923 C   0  0  0  0  0  0  0  0  0  0  0  0
    1.7424   -1.5445   -0.0187 C   0  0  0  0  0  0  0  0  0  0  0  0
    3.1354   -1.2999   -0.0974 C   0  0  0  0  0  0  0  0  0  0  0  0
    3.9947   -2.3713    0.2436 C   0  0  0  0  0  0  0  0  0  0  0  0
    3.5053   -3.4954    0.9121 C   0  0  0  0  0  0  0  0  0  0  0  0
    2.1827   -3.5625    1.2961 C   0  0  0  0  0  0  0  0  0  0  0  0
    3.6638   -0.0208   -0.4482 C   0  5  0  0  0  0  0  0  0  0  0  0
    5.0092   -0.0031   -0.8949 C   0  0  0  0  0  0  0  0  0  0  0  0
    5.8597   -1.1309   -0.7729 C   0  0  0  0  0  0  0  0  0  0  0  0
    2.9720    1.2282   -0.2564 C   0  0  0  0  0  0  0  0  0  0  0  0
    3.5576    2.3915   -0.8320 C   0  0  0  0  0  0  0  0  0  0  0  0
    4.7939    2.3613   -1.6124 C   0  0  0  0  0  0  0  0  0  0  0  0
    5.5768    1.1393   -1.5033 C   0  0  0  0  0  0  0  0  0  0  0  0
    6.8730    1.1244   -1.9956 C   0  0  0  0  0  0  0  0  0  0  0  0
    7.6980    0.0114   -1.8876 C   0  0  0  0  0  0  0  0  0  0  0  0
    7.1637   -1.1000   -1.2535 C   0  0  0  0  0  0  0  0  0  0  0  0
    1.8066    1.4532    0.5504 C   0  0  0  0  0  0  0  0  0  0  0  0
    1.3538    2.7604    0.7198 C   0  0  0  0  0  0  0  0  0  0  0  0
    1.9119    3.8801    0.1207 C   0  0  0  0  0  0  0  0  0  0  0  0
    3.0171    3.6643   -0.6715 C   0  0  0  0  0  0  0  0  0  0  0  0
    1.0776    0.4941    1.2019 O   0  0  0  0  0  0  0  0  0  0  0  0
    0.8825   -0.7510   -0.7099 O   0  0  0  0  0  0  0  0  0  0  0  0
    5.4136   -2.3317   -0.0716 C   0  0  0  0  0  0  0  0  0  0  0  0
    5.1958    3.3356   -2.2627 O   0  0  0  0  0  0  0  0  0  0  0  0
    6.1912   -3.2555    0.2095 O   0  0  0  0  0  0  0  0  0  0  0  0
   -5.0488   -1.3114   -4.0060 O   0  0  0  0  0  0  0  0  0  0  0  0
   -6.2459    2.6462    1.7758 O   0  0  0  0  0  0  0  0  0  0  0  0
   -1.0728   -4.2057   -3.0906 C   0  0  0  0  0  0  0  0  0  0  0  0
    0.1607   -4.7452   -2.3636 C   0  0  0  0  0  0  0  0  0  0  0  0
   -0.6348   -3.7096   -4.4755 C   0  0  0  0  0  0  0  0  0  0  0  0
   -2.0849   -5.3501   -3.2465 C   0  0  0  0  0  0  0  0  0  0  0  0
   -1.8723    2.7631    4.3779 C   0  0  0  0  0  0  0  0  0  0  0  0
   -2.1431    4.2680    4.5194 C   0  0  0  0  0  0  0  0  0  0  0  0
   -2.7076    1.9920    5.4099 C   0  0  0  0  0  0  0  0  0  0  0  0
   -0.3919    2.5089    4.6724 C   0  0  0  0  0  0  0  0  0  0  0  0
   -9.0445    1.4018   -2.3669 C   0  0  0  0  0  0  0  0  0  0  0  0
   -8.9551    2.0267   -3.7661 C   0  0  0  0  0  0  0  0  0  0  0  0
   -9.8383    2.3512   -1.4654 C   0  0  0  0  0  0  0  0  0  0  0  0
   -9.7997    0.0674   -2.4462 C   0  0  0  0  0  0  0  0  0  0  0  0
    1.6320   -4.6272    2.2334 C   0  0  0  0  0  0  0  0  0  0  0  0
    0.5155   -5.4172    1.5383 C   0  0  0  0  0  0  0  0  0  0  0  0
    1.0671   -3.9271    3.4772 C   0  0  0  0  0  0  0  0  0  0  0  0
    2.7101   -5.6180    2.6833 C   0  0  0  0  0  0  0  0  0  0  0  0
    1.3361    5.2787    0.2791 C   0  0  0  0  0  0  0  0  0  0  0  0
    2.4308    6.2260    0.7919 C   0  0  0  0  0  0  0  0  0  0  0  0
    0.8440    5.7518   -1.0952 C   0  0  0  0  0  0  0  0  0  0  0  0
    0.1606    5.3309    1.2585 C   0  0  0  0  0  0  0  0  0  0  0  0
    9.1160    0.0651   -2.4362 C   0  0  0  0  0  0  0  0  0  0  0  0
    9.8889    1.1791   -1.7159 C   0  0  0  0  0  0  0  0  0  0  0  0
    9.8718   -1.2514   -2.2368 C   0  0  0  0  0  0  0  0  0  0  0  0
    9.0608    0.3663   -3.9403 C   0  0  0  0  0  0  0  0  0  0  0  0
   -2.4485    2.3026    6.4225 H   0  0  0  0  0  0  0  0  0  0  0  0
   -2.5193    0.9249    5.3143 H   0  0  0  0  0  0  0  0  0  0  0  0
   -3.7694    2.1641    5.2555 H   0  0  0  0  0  0  0  0  0  0  0  0
   -0.1602    2.8247    5.6903 H   0  0  0  0  0  0  0  0  0  0  0  0
    0.2449    3.0681    3.9915 H   0  0  0  0  0  0  0  0  0  0  0  0
   -0.1533    1.4527    4.5800 H   0  0  0  0  0  0  0  0  0  0  0  0
   -1.8441    4.6173    5.5080 H   0  0  0  0  0  0  0  0  0  0  0  0
   -3.1981    4.4882    4.3818 H   0  0  0  0  0  0  0  0  0  0  0  0
   -1.5806    4.8211    3.7705 H   0  0  0  0  0  0  0  0  0  0  0  0
   -0.2097    6.3538    1.3339 H   0  0  0  0  0  0  0  0  0  0  0  0
    0.4720    5.0090    2.2501 H   0  0  0  0  0  0  0  0  0  0  0  0
   -0.6574    4.6985    0.9230 H   0  0  0  0  0  0  0  0  0  0  0  0
    2.0355    7.2349    0.9110 H   0  0  0  0  0  0  0  0  0  0  0  0
    3.2684    6.2647    0.1014 H   0  0  0  0  0  0  0  0  0  0  0  0
    2.8009    5.8825    1.7562 H   0  0  0  0  0  0  0  0  0  0  0  0
    0.4246    6.7560   -1.0286 H   0  0  0  0  0  0  0  0  0  0  0  0
    0.0753    5.0756   -1.4618 H   0  0  0  0  0  0  0  0  0  0  0  0
    1.6590    5.7620   -1.8141 H   0  0  0  0  0  0  0  0  0  0  0  0
   10.9103    1.2413   -2.0920 H   0  0  0  0  0  0  0  0  0  0  0  0
    9.9240    0.9772   -0.6471 H   0  0  0  0  0  0  0  0  0  0  0  0
    9.4082    2.1423   -1.8629 H   0  0  0  0  0  0  0  0  0  0  0  0
   10.8760   -1.1667   -2.6529 H   0  0  0  0  0  0  0  0  0  0  0  0
    9.3623   -2.0697   -2.7399 H   0  0  0  0  0  0  0  0  0  0  0  0
    9.9604   -1.4915   -1.1801 H   0  0  0  0  0  0  0  0  0  0  0  0
   10.0667    0.4159   -4.3578 H   0  0  0  0  0  0  0  0  0  0  0  0
    8.5624    1.3129   -4.1291 H   0  0  0  0  0  0  0  0  0  0  0  0
    8.5085   -0.4161   -4.4569 H   0  0  0  0  0  0  0  0  0  0  0  0
   -0.1533   -4.5120   -5.0348 H   0  0  0  0  0  0  0  0  0  0  0  0
    0.0711   -2.8899   -4.3637 H   0  0  0  0  0  0  0  0  0  0  0  0
   -1.4857   -3.3504   -5.0480 H   0  0  0  0  0  0  0  0  0  0  0  0
   -1.6350   -6.1861   -3.7822 H   0  0  0  0  0  0  0  0  0  0  0  0
   -2.9625   -5.0207   -3.7961 H   0  0  0  0  0  0  0  0  0  0  0  0
   -2.4078   -5.6994   -2.2675 H   0  0  0  0  0  0  0  0  0  0  0  0
    0.6131   -5.5449   -2.9507 H   0  0  0  0  0  0  0  0  0  0  0  0
   -0.1099   -5.1495   -1.3918 H   0  0  0  0  0  0  0  0  0  0  0  0
    0.9035   -3.9641   -2.2240 H   0  0  0  0  0  0  0  0  0  0  0  0
    0.1213   -6.1846    2.2050 H   0  0  0  0  0  0  0  0  0  0  0  0
    0.9039   -5.9027    0.6447 H   0  0  0  0  0  0  0  0  0  0  0  0
   -0.3026   -4.7634    1.2504 H   0  0  0  0  0  0  0  0  0  0  0  0
    2.2794   -6.3428    3.3747 H   0  0  0  0  0  0  0  0  0  0  0  0
    3.5211   -5.1017    3.1909 H   0  0  0  0  0  0  0  0  0  0  0  0
    3.1180   -6.1595    1.8329 H   0  0  0  0  0  0  0  0  0  0  0  0
    0.6479   -4.6571    4.1703 H   0  0  0  0  0  0  0  0  0  0  0  0
    0.2887   -3.2212    3.2032 H   0  0  0  0  0  0  0  0  0  0  0  0
    1.8569   -3.3771    3.9850 H   0  0  0  0  0  0  0  0  0  0  0  0
   -9.9519    2.2155   -4.1652 H   0  0  0  0  0  0  0  0  0  0  0  0
   -8.4279    1.3697   -4.4519 H   0  0  0  0  0  0  0  0  0  0  0  0
   -8.4154    2.9704   -3.7188 H   0  0  0  0  0  0  0  0  0  0  0  0
  -10.8129    0.2223   -2.8178 H   0  0  0  0  0  0  0  0  0  0  0  0
   -9.8576   -0.3872   -1.4591 H   0  0  0  0  0  0  0  0  0  0  0  0
   -9.2917   -0.6270   -3.1095 H   0  0  0  0  0  0  0  0  0  0  0  0
  -10.8337    2.5088   -1.8814 H   0  0  0  0  0  0  0  0  0  0  0  0
   -9.3437    3.3166   -1.3899 H   0  0  0  0  0  0  0  0  0  0  0  0
   -9.9485    1.9357   -0.4667 H   0  0  0  0  0  0  0  0  0  0  0  0
   -7.7401    2.3388   -0.0481 H   0  0  0  0  0  0  0  0  0  0  0  0
   -7.0908   -0.1709   -3.4708 H   0  0  0  0  0  0  0  0  0  0  0  0
   -3.3137   -2.7780   -3.7990 H   0  0  0  0  0  0  0  0  0  0  0  0
   -0.3929   -2.9890   -0.7139 H   0  0  0  0  0  0  0  0  0  0  0  0
   -4.3320    2.9827    3.1606 H   0  0  0  0  0  0  0  0  0  0  0  0
   -0.3688    1.5676    2.3681 H   0  0  0  0  0  0  0  0  0  0  0  0
    0.4837    2.8884    1.3328 H   0  0  0  0  0  0  0  0  0  0  0  0
    3.5239    4.4671   -1.1872 H   0  0  0  0  0  0  0  0  0  0  0  0
    7.2146    2.0371   -2.4642 H   0  0  0  0  0  0  0  0  0  0  0  0
    7.7400   -1.9994   -1.0966 H   0  0  0  0  0  0  0  0  0  0  0  0
    4.2277   -4.2591    1.1534 H   0  0  0  0  0  0  0  0  0  0  0  0
    0.2769   -2.6090    1.0704 H   0  0  0  0  0  0  0  0  0  0  0  0
   -1.2531   -2.5315    5.8377 C   0  0  0  0  0  0  0  0  0  0  0  0
   -1.7757   -1.4137    6.4876 C   0  0  0  0  0  0  0  0  0  0  0  0
   -2.9222   -0.7608    5.9263 C   0  0  0  0  0  0  0  0  0  0  0  0
   -3.4521   -1.3546    4.7457 C   0  0  0  0  0  0  0  0  0  0  0  0
   -2.8491   -2.4394    4.1159 C   0  0  0  0  0  0  0  0  0  0  0  0
   -1.7328   -3.0489    4.6432 C   0  0  0  0  0  0  0  0  0  0  0  0
   -3.6367    0.3613    6.4810 C   0  0  0  0  0  0  0  0  0  0  0  0
   -4.9687    0.6042    6.0571 C   0  0  0  0  0  0  0  0  0  0  0  0
   -5.4968    0.0213    4.8824 C   0  0  0  0  0  0  0  0  0  0  0  0
   -4.6810   -0.8961    4.1015 C   0  0  0  0  0  0  0  0  0  0  0  0
   -3.1412    1.2035    7.5235 C   0  0  0  0  0  0  0  0  0  0  0  0
   -4.0351    1.9010    8.3739 C   0  0  0  0  0  0  0  0  0  0  0  0
   -5.4445    2.0452    8.0452 C   0  0  0  0  0  0  0  0  0  0  0  0
   -5.8487    1.4533    6.7746 C   0  0  0  0  0  0  0  0  0  0  0  0
   -7.1418    1.6950    6.3248 C   0  0  0  0  0  0  0  0  0  0  0  0
   -7.6385    1.1447    5.1536 C   0  0  0  0  0  0  0  0  0  0  0  0
   -6.7830    0.3060    4.4496 C   0  0  0  0  0  0  0  0  0  0  0  0
   -1.7585    1.3477    7.7977 C   0  0  0  0  0  0  0  0  0  0  0  0
   -1.3877    1.7485    9.0806 C   0  0  0  0  0  0  0  0  0  0  0  0
   -2.2842    2.3088    9.9849 C   0  0  0  0  0  0  0  0  0  0  0  0
   -3.5905    2.4704    9.5649 C   0  0  0  0  0  0  0  0  0  0  0  0
   -1.1219   -1.0386    7.6314 O   0  0  0  0  0  0  0  0  0  0  0  0
   -0.8406    1.0869    6.8315 O   0  0  0  0  0  0  0  0  0  0  0  0
    0.0016   -0.0491    7.2321 B   0  5  0  0  0  0  0  0  0  0  0  0
    1.3166   -2.5906    7.7923 C   0  0  0  0  0  0  0  0  0  0  0  0
    1.7424   -1.5445    6.9813 C   0  0  0  0  0  0  0  0  0  0  0  0
    3.1354   -1.2999    6.9026 C   0  0  0  0  0  0  0  0  0  0  0  0
    3.9947   -2.3713    7.2436 C   0  0  0  0  0  0  0  0  0  0  0  0
    3.5053   -3.4954    7.9121 C   0  0  0  0  0  0  0  0  0  0  0  0
    2.1827   -3.5625    8.2961 C   0  0  0  0  0  0  0  0  0  0  0  0
    3.6638   -0.0208    6.5518 C   0  5  0  0  0  0  0  0  0  0  0  0
    5.0092   -0.0031    6.1051 C   0  0  0  0  0  0  0  0  0  0  0  0
    5.8597   -1.1309    6.2271 C   0  0  0  0  0  0  0  0  0  0  0  0
    2.9720    1.2282    6.7436 C   0  0  0  0  0  0  0  0  0  0  0  0
    3.5576    2.3915    6.1680 C   0  0  0  0  0  0  0  0  0  0  0  0
    4.7939    2.3613    5.3876 C   0  0  0  0  0  0  0  0  0  0  0  0
    5.5768    1.1393    5.4967 C   0  0  0  0  0  0  0  0  0  0  0  0
    6.8730    1.1244    5.0044 C   0  0  0  0  0  0  0  0  0  0  0  0
    7.6980    0.0114    5.1124 C   0  0  0  0  0  0  0  0  0  0  0  0
    7.1637   -1.1000    5.7465 C   0  0  0  0  0  0  0  0  0  0  0  0
    1.8066    1.4532    7.5504 C   0  0  0  0  0  0  0  0  0  0  0  0
    1.3538    2.7604    7.7198 C   0  0  0  0  0  0  0  0  0  0  0  0
    1.9119    3.8801    7.1207 C   0  0  0  0  0  0  0  0  0  0  0  0
    3.0171    3.6643    6.3285 C   0  0  0  0  0  0  0  0  0  0  0  0
    1.0776    0.4941    8.2019 O   0  0  0  0  0  0  0  0  0  0  0  0
    0.8825   -0.7510    6.2901 O   0  0  0  0  0  0  0  0  0  0  0  0
    5.4136   -2.3317    6.9284 C   0  0  0  0  0  0  0  0  0  0  0  0
    5.1958    3.3356    4.7373 O   0  0  0  0  0  0  0  0  0  0  0  0
    6.1912   -3.2555    7.2095 O   0  0  0  0  0  0  0  0  0  0  0  0
   -5.0488   -1.3114    2.9940 O   0  0  0  0  0  0  0  0  0  0  0  0
   -6.2459    2.6462    8.7758 O   0  0  0  0  0  0  0  0  0  0  0  0
   -1.0728   -4.2057    3.9094 C   0  0  0  0  0  0  0  0  0  0  0  0
    0.1607   -4.7452    4.6364 C   0  0  0  0  0  0  0  0  0  0  0  0
   -0.6348   -3.7096    2.5245 C   0  0  0  0  0  0  0  0  0  0  0  0
   -2.0849   -5.3501    3.7535 C   0  0  0  0  0  0  0  0  0  0  0  0
   -1.8723    2.7631   11.3779 C   0  0  0  0  0  0  0  0  0  0  0  0
   -2.1431    4.2680   11.5194 C   0  0  0  0  0  0  0  0  0  0  0  0
   -2.7076    1.9920   12.4099 C   0  0  0  0  0  0  0  0  0  0  0  0
   -0.3919    2.5089   11.6724 C   0  0  0  0  0  0  0  0  0  0  0  0
   -9.0445    1.4018    4.6331 C   0  0  0  0  0  0  0  0  0  0  0  0
   -8.9551    2.0267    3.2339 C   0  0  0  0  0  0  0  0  0  0  0  0
   -9.8383    2.3512    5.5346 C   0  0  0  0  0  0  0  0  0  0  0  0
   -9.7997    0.0674    4.5538 C   0  0  0  0  0  0  0  0  0  0  0  0
    1.6320   -4.6272    9.2334 C   0  0  0  0  0  0  0  0  0  0  0  0
    0.5155   -5.4172    8.5383 C   0  0  0  0  0  0  0  0  0  0  0  0
    1.0671   -3.9271   10.4772 C   0  0  0  0  0  0  0  0  0  0  0  0
    2.7101   -5.6180    9.6833 C   0  0  0  0  0  0  0  0  0  0  0  0
    1.3361    5.2787    7.2791 C   0  0  0  0  0  0  0  0  0  0  0  0
    2.4308    6.2260    7.7919 C   0  0  0  0  0  0  0  0  0  0  0  0
    0.8440    5.7518    5.9048 C   0  0  0  0  0  0  0  0  0  0  0  0
    0.1606    5.3309    8.2585 C   0  0  0  0  0  0  0  0  0  0  0  0
    9.1160    0.0651    4.5638 C   0  0  0  0  0  0  0  0  0  0  0  0
    9.8889    1.1791    5.2841 C   0  0  0  0  0  0  0  0  0  0  0  0
    9.8718   -1.2514    4.7632 C   0  0  0  0  0  0  0  0  0  0  0  0
    9.0608    0.3663    3.0597 C   0  0  0  0  0  0  0  0  0  0  0  0
   -2.4485    2.3026   13.4225 H   0  0  0  0  0  0  0  0  0  0  0  0
   -2.5193    0.9249   12.3143 H   0  0  0  0  0  0  0  0  0  0  0  0
   -3.7694    2.1641   12.2555 H   0  0  0  0  0  0  0  0  0  0  0  0
   -0.1602    2.8247   12.6903 H   0  0  0  0  0  0  0  0  0  0  0  0
    0.2449    3.0681   10.9915 H   0  0  0  0  0  0  0  0  0  0  0  0
   -0.1533    1.4527   11.5800 H   0  0  0  0  0  0  0  0  0  0  0  0
   -1.8441    4.6173   12.5080 H   0  0  0  0  0  0  0  0  0  0  0  0
   -3.1981    4.4882   11.3818 H   0  0  0  0  0  0  0  0  0  0  0  0
   -1.5806    4.8211   10.7705 H   0  0  0  0  0  0  0  0  0  0  0  0
   -0.2097    6.3538    8.3339 H   0  0  0  0  0  0  0  0  0  0  0  0
    0.4720    5.0090    9.2501 H   0  0  0  0  0  0  0  0  0  0  0  0
   -0.6574    4.6985    7.9230 H   0  0  0  0  0  0  0  0  0  0  0  0
    2.0355    7.2349    7.9110 H   0  0  0  0  0  0  0  0  0  0  0  0
    3.2684    6.2647    7.1014 H   0  0  0  0  0  0  0  0  0  0  0  0
    2.8009    5.8825    8.7562 H   0  0  0  0  0  0  0  0  0  0  0  0
    0.4246    6.7560    5.9714 H   0  0  0  0  0  0  0  0  0  0  0  0
    0.0753    5.0756    5.5382 H   0  0  0  0  0  0  0  0  0  0  0  0
    1.6590    5.7620    5.1859 H   0  0  0  0  0  0  0  0  0  0  0  0
   10.9103    1.2413    4.9080 H   0  0  0  0  0  0  0  0  0  0  0  0
    9.9240    0.9772    6.3529 H   0  0  0  0  0  0  0  0  0  0  0  0
    9.4082    2.1423    5.1371 H   0  0  0  0  0  0  0  0  0  0  0  0
   10.8760   -1.1667    4.3471 H   0  0  0  0  0  0  0  0  0  0  0  0
    9.3623   -2.0697    4.2601 H   0  0  0  0  0  0  0  0  0  0  0  0
    9.9604   -1.4915    5.8199 H   0  0  0  0  0  0  0  0  0  0  0  0
   10.0667    0.4159    2.6422 H   0  0  0  0  0  0  0  0  0  0  0  0
    8.5624    1.3129    2.8709 H   0  0  0  0  0  0  0  0  0  0  0  0
    8.5085   -0.4161    2.5431 H   0  0  0  0  0  0  0  0  0  0  0  0
   -0.1533   -4.5120    1.9652 H   0  0  0  0  0  0  0  0  0  0  0  0
    0.0711   -2.8899    2.6363 H   0  0  0  0  0  0  0  0  0  0  0  0
   -1.4857   -3.3504    1.9520 H   0  0  0  0  0  0  0  0  0  0  0  0
   -1.6350   -6.1861    3.2178 H   0  0  0  0  0  0  0  0  0  0  0  0
   -2.9625   -5.0207    3.2039 H   0  0  0  0  0  0  0  0  0  0  0  0
   -2.4078   -5.6994    4.7325 H   0  0  0  0  0  0  0  0  0  0  0  0
    0.6131   -5.5449    4.0493 H   0  0  0  0  0  0  0  0  0  0  0  0
   -0.1099   -5.1495    5.6082 H   0  0  0  0  0  0  0  0  0  0  0  0
    0.9035   -3.9641    4.7760 H   0  0  0  0  0  0  0  0  0  0  0  0
    0.1213   -6.1846    9.2050 H   0  0  0  0  0  0  0  0  0  0  0  0
    0.9039   -5.9027    7.6447 H   0  0  0  0  0  0  0  0  0  0  0  0
   -0.3026   -4.7634    8.2504 H   0  0  0  0  0  0  0  0  0  0  0  0
    2.2794   -6.3428   10.3747 H   0  0  0  0  0  0  0  0  0  0  0  0
    3.5211   -5.1017   10.1909 H   0  0  0  0  0  0  0  0  0  0  0  0
    3.1180   -6.1595    8.8329 H   0  0  0  0  0  0  0  0  0  0  0  0
    0.6479   -4.6571   11.1703 H   0  0  0  0  0  0  0  0  0  0  0  0
    0.2887   -3.2212   10.2032 H   0  0  0  0  0  0  0  0  0  0  0  0
    1.8569   -3.3771   10.9850 H   0  0  0  0  0  0  0  0  0  0  0  0
   -9.9519    2.2155    2.8348 H   0  0  0  0  0  0  0  0  0  0  0  0
   -8.4279    1.3697    2.5481 H   0  0  0  0  0  0  0  0  0  0  0  0
   -8.4154    2.9704    3.2812 H   0  0  0  0  0  0  0  0  0  0  0  0
  -10.8129    0.2223    4.1822 H   0  0  0  0  0  0  0  0  0  0  0  0
   -9.8576   -0.3872    5.5409 H   0  0  0  0  0  0  0  0  0  0  0  0
   -9.2917   -0.6270    3.8905 H   0  0  0  0  0  0  0  0  0  0  0  0
  -10.8337    2.5088    5.1186 H   0  0  0  0  0  0  0  0  0  0  0  0
   -9.3437    3.3166    5.6101 H   0  0  0  0  0  0  0  0  0  0  0  0
   -9.9485    1.9357    6.5333 H   0  0  0  0  0  0  0  0  0  0  0  0
   -7.7401    2.3388    6.9519 H   0  0  0  0  0  0  0  0  0  0  0  0
   -7.0908   -0.1709    3.5292 H   0  0  0  0  0  0  0  0  0  0  0  0
   -3.3137   -2.7780    3.2010 H   0  0  0  0  0  0  0  0  0  0  0  0
   -0.3929   -2.9890    6.2861 H   0  0  0  0  0  0  0  0  0  0  0  0
   -4.3320    2.9827   10.1606 H   0  0  0  0  0  0  0  0  0  0  0  0
   -0.3688    1.5676    9.3681 H   0  0  0  0  0  0  0  0  0  0  0  0
    0.4837    2.8884    8.3328 H   0  0  0  0  0  0  0  0  0  0  0  0
    3.5239    4.4671    5.8128 H   0  0  0  0  0  0  0  0  0  0  0  0
    7.2146    2.0371    4.5358 H   0  0  0  0  0  0  0  0  0  0  0  0
    7.7400   -1.9994    5.9034 H   0  0  0  0  0  0  0  0  0  0  0  0
    4.2277   -4.2591    8.1534 H   0  0  0  0  0  0  0  0  0  0  0  0
    0.2769   -2.6090    8.0704 H   0  0  0  0  0  0  0  0  0  0  0  0
  1  2  2  0  0  0  0
  1133  1  0  0  0  0
  2  3  1  0  0  0  0
  2 22  1  0  0  0  0
  3  4  2  0  0  0  0
  3  7  1  0  0  0  0
  4  5  1  0  0  0  0
  5  6  2  0  0  0  0
  5132  1  0  0  0  0
  6 52  1  0  0  0  0
  6  1  1  0  0  0  0
  7  8  1  0  0  0  0
  7 11  1  0  0  0  0
  8  9  2  0  0  0  0
  9 10  1  0  0  0  0
 10  4  1  0  0  0  0
 10 50  2  0  0  0  0
 11 12  2  0  0  0  0
 11 18  1  0  0  0  0
 13 14  1  0  0  0  0
 13 12  1  0  0  0  0
 13 51  2  0  0  0  0
 14  8  1  0  0  0  0
 14 15  2  0  0  0  0
 15 16  1  0  0  0  0
 15130  1  0  0  0  0
 16 60  1  0  0  0  0
 16 17  2  0  0  0  0
 17  9  1  0  0  0  0
 17131  1  0  0  0  0
 18 19  2  0  0  0  0
 18 23  1  0  0  0  0
 19 20  1  0  0  0  0
 19135  1  0  0  0  0
 20 56  1  0  0  0  0
 20 21  2  0  0  0  0
 21 12  1  0  0  0  0
 21134  1  0  0  0  0
 24 23  1  0  0  0  0
 24 22  1  0  0  0  0
 25 26  2  0  0  0  0
 25141  1  0  0  0  0
 26 27  1  0  0  0  0
 26 46  1  0  0  0  0
 27 28  2  0  0  0  0
 27 31  1  0  0  0  0
 28 29  1  0  0  0  0
 28 47  1  0  0  0  0
 29 30  2  0  0  0  0
 29140  1  0  0  0  0
 30 64  1  0  0  0  0
 30 25  1  0  0  0  0
 31 32  1  0  0  0  0
 32 33  2  0  0  0  0
 34 35  2  0  0  0  0
 34 41  1  0  0  0  0
 34 31  1  0  0  0  0
 36 37  1  0  0  0  0
 36 35  1  0  0  0  0
 36 48  2  0  0  0  0
 37 32  1  0  0  0  0
 37 38  2  0  0  0  0
 38 39  1  0  0  0  0
 38138  1  0  0  0  0
 39 72  1  0  0  0  0
 39 40  2  0  0  0  0
 40 33  1  0  0  0  0
 40139  1  0  0  0  0
 41 42  2  0  0  0  0
 41 45  1  0  0  0  0
 42 43  1  0  0  0  0
 42136  1  0  0  0  0
 43 68  1  0  0  0  0
 43 44  2  0  0  0  0
 44 35  1  0  0  0  0
 44137  1  0  0  0  0
 45 24  1  0  0  0  0
 46 24  1  0  0  0  0
 47 33  1  0  0  0  0
 47 49  2  0  0  0  0
 52 53  1  0  0  0  0
 52 54  1  0  0  0  0
 52 55  1  0  0  0  0
 53109  1  0  0  0  0
 53110  1  0  0  0  0
 53111  1  0  0  0  0
 54103  1  0  0  0  0
 54104  1  0  0  0  0
 54105  1  0  0  0  0
 55106  1  0  0  0  0
 55107  1  0  0  0  0
 55108  1  0  0  0  0
 56 57  1  0  0  0  0
 56 58  1  0  0  0  0
 56 59  1  0  0  0  0
 57 82  1  0  0  0  0
 57 83  1  0  0  0  0
 57 84  1  0  0  0  0
 58 76  1  0  0  0  0
 58 77  1  0  0  0  0
 58 78  1  0  0  0  0
 59 79  1  0  0  0  0
 59 80  1  0  0  0  0
 59 81  1  0  0  0  0
 60 61  1  0  0  0  0
 60 62  1  0  0  0  0
 60 63  1  0  0  0  0
 61121  1  0  0  0  0
 61122  1  0  0  0  0
 61123  1  0  0  0  0
 62127  1  0  0  0  0
 62128  1  0  0  0  0
 62129  1  0  0  0  0
 63124  1  0  0  0  0
 63125  1  0  0  0  0
 63126  1  0  0  0  0
 64 65  1  0  0  0  0
 64 66  1  0  0  0  0
 64 67  1  0  0  0  0
 65112  1  0  0  0  0
 65113  1  0  0  0  0
 65114  1  0  0  0  0
 66118  1  0  0  0  0
 66119  1  0  0  0  0
 66120  1  0  0  0  0
 67115  1  0  0  0  0
 67116  1  0  0  0  0
 67117  1  0  0  0  0
 68 69  1  0  0  0  0
 68 70  1  0  0  0  0
 68 71  1  0  0  0  0
 69 88  1  0  0  0  0
 69 89  1  0  0  0  0
 69 90  1  0  0  0  0
 70 91  1  0  0  0  0
 70 92  1  0  0  0  0
 70 93  1  0  0  0  0
 71 85  1  0  0  0  0
 71 86  1  0  0  0  0
 71 87  1  0  0  0  0
 72 73  1  0  0  0  0
 72 74  1  0  0  0  0
 72 75  1  0  0  0  0
 73 94  1  0  0  0  0
 73 95  1  0  0  0  0
 73 96  1  0  0  0  0
 74 97  1  0  0  0  0
 74 98  1  0  0  0  0
 74 99  1  0  0  0  0
 75100  1  0  0  0  0
 75101  1  0  0  0  0
 75102  1  0  0  0  0
142143  2  0  0  0  0
142274  1  0  0  0  0
143144  1  0  0  0  0
143163  1  0  0  0  0
144145  2  0  0  0  0
144148  1  0  0  0  0
145146  1  0  0  0  0
146147  2  0  0  0  0
146273  1  0  0  0  0
147193  1  0  0  0  0
147142  1  0  0  0  0
148149  1  0  0  0  0
148152  1  0  0  0  0
149150  2  0  0  0  0
150151  1  0  0  0  0
151145  1  0  0  0  0
151191  2  0  0  0  0
152153  2  0  0  0  0
152159  1  0  0  0  0
154155  1  0  0  0  0
154153  1  0  0  0  0
154192  2  0  0  0  0
155149  1  0  0  0  0
155156  2  0  0  0  0
156157  1  0  0  0  0
156271  1  0  0  0  0
157201  1  0  0  0  0
157158  2  0  0  0  0
158150  1  0  0  0  0
158272  1  0  0  0  0
159160  2  0  0  0  0
159164  1  0  0  0  0
160161  1  0  0  0  0
160276  1  0  0  0  0
161197  1  0  0  0  0
161162  2  0  0  0  0
162153  1  0  0  0  0
162275  1  0  0  0  0
165164  1  0  0  0  0
165163  1  0  0  0  0
166167  2  0  0  0  0
166282  1  0  0  0  0
167168  1  0  0  0  0
167187  1  0  0  0  0
168169  2  0  0  0  0
168172  1  0  0  0  0
169170  1  0  0  0  0
169188  1  0  0  0  0
170171  2  0  0  0  0
170281  1  0  0  0  0
171205  1  0  0  0  0
171166  1  0  0  0  0
172173  1  0  0  0  0
173174  2  0  0  0  0
175176  2  0  0  0  0
175182  1  0  0  0  0
175172  1  0  0  0  0
177178  1  0  0  0  0
177176  1  0  0  0  0
177189  2  0  0  0  0
178173  1  0  0  0  0
178179  2  0  0  0  0
179180  1  0  0  0  0
179279  1  0  0  0  0
180213  1  0  0  0  0
180181  2  0  0  0  0
181174  1  0  0  0  0
181280  1  0  0  0  0
182183  2  0  0  0  0
182186  1  0  0  0  0
183184  1  0  0  0  0
183277  1  0  0  0  0
184209  1  0  0  0  0
184185  2  0  0  0  0
185176  1  0  0  0  0
185278  1  0  0  0  0
186165  1  0  0  0  0
187165  1  0  0  0  0
188174  1  0  0  0  0
188190  2  0  0  0  0
193194  1  0  0  0  0
193195  1  0  0  0  0
193196  1  0  0  0  0
194250  1  0  0  0  0
194251  1  0  0  0  0
194252  1  0  0  0  0
195244  1  0  0  0  0
195245  1  0  0  0  0
195246  1  0  0  0  0
196247  1  0  0  0  0
196248  1  0  0  0  0
196249  1  0  0  0  0
197198  1  0  0  0  0
197199  1  0  0  0  0
197200  1  0  0  0  0
198223  1  0  0  0  0
198224  1  0  0  0  0
198225  1  0  0  0  0
199217  1  0  0  0  0
199218  1  0  0  0  0
199219  1  0  0  0  0
200220  1  0  0  0  0
200221  1  0  0  0  0
200222  1  0  0  0  0
201202  1  0  0  0  0
201203  1  0  0  0  0
201204  1  0  0  0  0
202262  1  0  0  0  0
202263  1  0  0  0  0
202264  1  0  0  0  0
203268  1  0  0  0  0
203269  1  0  0  0  0
203270  1  0  0  0  0
204265  1  0  0  0  0
204266  1  0  0  0  0
204267  1  0  0  0  0
205206  1  0  0  0  0
205207  1  0  0  0  0
205208  1  0  0  0  0
206253  1  0  0  0  0
206254  1  0  0  0  0
206255  1  0  0  0  0
207259  1  0  0  0  0
207260  1  0  0  0  0
207261  1  0  0  0  0
208256  1  0  0  0  0
208257  1  0  0  0  0
208258  1  0  0  0  0
209210  1  0  0  0  0
209211  1  0  0  0  0
209212  1  0  0  0  0
210229  1  0  0  0  0
210230  1  0  0  0  0
210231  1  0  0  0  0
211232  1  0  0  0  0
211233  1  0  0  0  0
211234  1  0  0  0  0
212226  1  0  0  0  0
212227  1  0  0  0  0
212228  1  0  0  0  0
213214  1  0  0  0  0
213215  1  0  0  0  0
213216  1  0  0  0  0
214235  1  0  0  0  0
214236  1  0  0  0  0
214237  1  0  0  0  0
215238  1  0  0  0  0
215239  1  0  0  0  0
215240  1  0  0  0  0
216241  1  0  0  0  0
216242  1  0  0  0  0
216243  1  0  0  0  0
M  CHG  4  24  -1  31  -1 165  -1 172  -1
M  END
