 energy: -209.500069659130 gnorm: 0.000111903879 xtb: 6.7.1 (edcfbbe)
          03112513433D

141152  0     0  0            999 V2000
   -2.0249   -3.1218    1.4388 C   0  0  0  0  0  0  0  0  0  0  0  0
   -2.1610   -1.7923    1.0483 C   0  0  0  0  0  0  0  0  0  0  0  0
   -2.9720   -1.4333   -0.0635 C   0  0  0  0  0  0  0  0  0  0  0  0
   -3.5035   -2.5327   -0.7891 C   0  0  0  0  0  0  0  0  0  0  0  0
   -3.2763   -3.8536   -0.4125 C   0  0  0  0  0  0  0  0  0  0  0  0
   -2.5757   -4.1815    0.7319 C   0  0  0  0  0  0  0  0  0  0  0  0
   -3.3936   -0.0925   -0.3752 C   0  0  0  0  0  0  0  0  0  0  0  0
   -4.5808    0.0067   -1.1580 C   0  0  0  0  0  0  0  0  0  0  0  0
   -5.0420   -1.0563   -1.9738 C   0  0  0  0  0  0  0  0  0  0  0  0
   -4.3845   -2.3544   -1.9359 C   0  0  0  0  0  0  0  0  0  0  0  0
   -2.8153    1.1614    0.0586 C   0  0  0  0  0  0  0  0  0  0  0  0
   -3.6556    2.3071    0.1156 C   0  0  0  0  0  0  0  0  0  0  0  0
   -5.0526    2.2862   -0.3032 C   0  0  0  0  0  0  0  0  0  0  0  0
   -5.3943    1.1638   -1.1635 C   0  0  0  0  0  0  0  0  0  0  0  0
   -6.5353    1.2591   -1.9506 C   0  0  0  0  0  0  0  0  0  0  0  0
   -6.9310    0.2408   -2.8036 C   0  0  0  0  0  0  0  0  0  0  0  0
   -6.1587   -0.9136   -2.7840 C   0  0  0  0  0  0  0  0  0  0  0  0
   -1.4355    1.4231    0.3141 C   0  0  0  0  0  0  0  0  0  0  0  0
   -0.9942    2.7182    0.5995 C   0  0  0  0  0  0  0  0  0  0  0  0
   -1.8408    3.8129    0.6867 C   0  0  0  0  0  0  0  0  0  0  0  0
   -3.1810    3.5678    0.4617 C   0  0  0  0  0  0  0  0  0  0  0  0
   -1.5143   -0.8880    1.7988 O   0  0  0  0  0  0  0  0  0  0  0  0
   -0.4636    0.5070    0.1810 O   0  0  0  0  0  0  0  0  0  0  0  0
   -0.2058   -0.4770    1.2340 B   0  0  0  0  0  0  0  0  0  0  0  0
    1.8313   -3.3424    1.2663 C   0  0  0  0  0  0  0  0  0  0  0  0
    1.7123   -2.0065    0.8818 C   0  0  0  0  0  0  0  0  0  0  0  0
    2.8820   -1.2319    0.6206 C   0  0  0  0  0  0  0  0  0  0  0  0
    4.0544   -2.0165    0.4376 C   0  0  0  0  0  0  0  0  0  0  0  0
    4.1334   -3.3538    0.8315 C   0  0  0  0  0  0  0  0  0  0  0  0
    3.0388   -4.0287    1.3254 C   0  0  0  0  0  0  0  0  0  0  0  0
    2.9959    0.2066    0.4680 C   0  0  0  0  0  0  0  0  0  0  0  0
    4.0426    0.6540   -0.3863 C   0  0  0  0  0  0  0  0  0  0  0  0
    5.0410   -0.2101   -0.8959 C   0  0  0  0  0  0  0  0  0  0  0  0
    2.3647    1.2167    1.2701 C   0  0  0  0  0  0  0  0  0  0  0  0
    2.8221    2.5620    1.1838 C   0  0  0  0  0  0  0  0  0  0  0  0
    3.5120    3.0516   -0.0022 C   0  0  0  0  0  0  0  0  0  0  0  0
    4.1796    2.0127   -0.7692 C   0  0  0  0  0  0  0  0  0  0  0  0
    5.0697    2.3926   -1.7631 C   0  0  0  0  0  0  0  0  0  0  0  0
    5.9382    1.4964   -2.3740 C   0  0  0  0  0  0  0  0  0  0  0  0
    5.9459    0.2069   -1.8645 C   0  0  0  0  0  0  0  0  0  0  0  0
    1.4159    1.0146    2.3225 C   0  0  0  0  0  0  0  0  0  0  0  0
    1.3518    1.9120    3.3836 C   0  0  0  0  0  0  0  0  0  0  0  0
    2.0316    3.1269    3.4022 C   0  0  0  0  0  0  0  0  0  0  0  0
    2.6713    3.4744    2.2286 C   0  0  0  0  0  0  0  0  0  0  0  0
    0.5659   -0.0058    2.3925 O   0  0  0  0  0  0  0  0  0  0  0  0
    0.4594   -1.6191    0.6442 O   0  0  0  0  0  0  0  0  0  0  0  0
    5.2145   -1.5221   -0.2927 C   0  0  0  0  0  0  0  0  0  0  0  0
    3.6052    4.2549   -0.2753 O   0  0  0  0  0  0  0  0  0  0  0  0
    6.2538   -2.1802   -0.4374 O   0  0  0  0  0  0  0  0  0  0  0  0
   -4.6445   -3.2569   -2.7415 O   0  0  0  0  0  0  0  0  0  0  0  0
   -5.8567    3.1885   -0.0390 O   0  0  0  0  0  0  0  0  0  0  0  0
   -2.4394   -5.6396    1.1433 C   0  0  0  0  0  0  0  0  0  0  0  0
   -1.6438   -5.8143    2.4385 C   0  0  0  0  0  0  0  0  0  0  0  0
   -1.7274   -6.4054    0.0200 C   0  0  0  0  0  0  0  0  0  0  0  0
   -3.8404   -6.2305    1.3610 C   0  0  0  0  0  0  0  0  0  0  0  0
   -1.3784    5.2340    0.9647 C   0  0  0  0  0  0  0  0  0  0  0  0
   -1.7466    6.1210   -0.2337 C   0  0  0  0  0  0  0  0  0  0  0  0
   -2.0945    5.7472    2.2226 C   0  0  0  0  0  0  0  0  0  0  0  0
    0.1293    5.3296    1.1876 C   0  0  0  0  0  0  0  0  0  0  0  0
   -8.1479    0.3247   -3.7120 C   0  0  0  0  0  0  0  0  0  0  0  0
   -7.7000    0.1267   -5.1669 C   0  0  0  0  0  0  0  0  0  0  0  0
   -8.8627    1.6747   -3.6081 C   0  0  0  0  0  0  0  0  0  0  0  0
   -9.1412   -0.7798   -3.3245 C   0  0  0  0  0  0  0  0  0  0  0  0
    3.0948   -5.4554    1.8479 C   0  0  0  0  0  0  0  0  0  0  0  0
    2.2627   -6.3663    0.9371 C   0  0  0  0  0  0  0  0  0  0  0  0
    2.5262   -5.4843    3.2731 C   0  0  0  0  0  0  0  0  0  0  0  0
    4.5263   -5.9985    1.8954 C   0  0  0  0  0  0  0  0  0  0  0  0
    2.0282    3.9874    4.6558 C   0  0  0  0  0  0  0  0  0  0  0  0
    2.6893    3.1792    5.7826 C   0  0  0  0  0  0  0  0  0  0  0  0
    2.8150    5.2874    4.4668 C   0  0  0  0  0  0  0  0  0  0  0  0
    0.5946    4.3490    5.0646 C   0  0  0  0  0  0  0  0  0  0  0  0
    6.8667    1.9710   -3.4807 C   0  0  0  0  0  0  0  0  0  0  0  0
    7.8197    3.0344   -2.9170 C   0  0  0  0  0  0  0  0  0  0  0  0
    7.7042    0.8312   -4.0674 C   0  0  0  0  0  0  0  0  0  0  0  0
    6.0252    2.5802   -4.6106 C   0  0  0  0  0  0  0  0  0  0  0  0
    8.3158    1.2068   -4.8881 H   0  0  0  0  0  0  0  0  0  0  0  0
    7.0631    0.0414   -4.4517 H   0  0  0  0  0  0  0  0  0  0  0  0
    8.3674    0.4090   -3.3161 H   0  0  0  0  0  0  0  0  0  0  0  0
    8.4953    3.3935   -3.6937 H   0  0  0  0  0  0  0  0  0  0  0  0
    8.4128    2.6122   -2.1080 H   0  0  0  0  0  0  0  0  0  0  0  0
    7.2646    3.8814   -2.5235 H   0  0  0  0  0  0  0  0  0  0  0  0
    6.6670    2.9330   -5.4183 H   0  0  0  0  0  0  0  0  0  0  0  0
    5.4358    3.4176   -4.2484 H   0  0  0  0  0  0  0  0  0  0  0  0
    5.3421    1.8337   -5.0106 H   0  0  0  0  0  0  0  0  0  0  0  0
    2.8092    5.8611    5.3940 H   0  0  0  0  0  0  0  0  0  0  0  0
    2.3694    5.8973    3.6852 H   0  0  0  0  0  0  0  0  0  0  0  0
    3.8481    5.0777    4.2000 H   0  0  0  0  0  0  0  0  0  0  0  0
    0.5966    4.8973    6.0072 H   0  0  0  0  0  0  0  0  0  0  0  0
   -0.0145    3.4581    5.1860 H   0  0  0  0  0  0  0  0  0  0  0  0
    0.1344    4.9747    4.3042 H   0  0  0  0  0  0  0  0  0  0  0  0
    2.7228    3.7606    6.7044 H   0  0  0  0  0  0  0  0  0  0  0  0
    3.7063    2.9114    5.5029 H   0  0  0  0  0  0  0  0  0  0  0  0
    2.1376    2.2623    5.9702 H   0  0  0  0  0  0  0  0  0  0  0  0
   -1.7524    6.7514    2.4746 H   0  0  0  0  0  0  0  0  0  0  0  0
   -1.8881    5.0865    3.0617 H   0  0  0  0  0  0  0  0  0  0  0  0
   -3.1708    5.7777    2.0744 H   0  0  0  0  0  0  0  0  0  0  0  0
   -1.4306    7.1487   -0.0549 H   0  0  0  0  0  0  0  0  0  0  0  0
   -2.8185    6.1151   -0.4137 H   0  0  0  0  0  0  0  0  0  0  0  0
   -1.2479    5.7567   -1.1291 H   0  0  0  0  0  0  0  0  0  0  0  0
    0.4060    6.3601    1.4127 H   0  0  0  0  0  0  0  0  0  0  0  0
    0.6820    5.0193    0.3050 H   0  0  0  0  0  0  0  0  0  0  0  0
    0.4348    4.6998    2.0169 H   0  0  0  0  0  0  0  0  0  0  0  0
  -10.0229   -0.7436   -3.9647 H   0  0  0  0  0  0  0  0  0  0  0  0
   -9.4567   -0.6514   -2.2908 H   0  0  0  0  0  0  0  0  0  0  0  0
   -8.6857   -1.7615   -3.4200 H   0  0  0  0  0  0  0  0  0  0  0  0
   -9.7169    1.6931   -4.2855 H   0  0  0  0  0  0  0  0  0  0  0  0
   -8.1939    2.4876   -3.8803 H   0  0  0  0  0  0  0  0  0  0  0  0
   -9.2262    1.8441   -2.5975 H   0  0  0  0  0  0  0  0  0  0  0  0
   -8.5555    0.1753   -5.8409 H   0  0  0  0  0  0  0  0  0  0  0  0
   -7.2138   -0.8361   -5.2957 H   0  0  0  0  0  0  0  0  0  0  0  0
   -6.9918    0.9037   -5.4477 H   0  0  0  0  0  0  0  0  0  0  0  0
    2.2896   -7.3957    1.2952 H   0  0  0  0  0  0  0  0  0  0  0  0
    2.6561   -6.3396   -0.0771 H   0  0  0  0  0  0  0  0  0  0  0  0
    1.2284   -6.0400    0.9065 H   0  0  0  0  0  0  0  0  0  0  0  0
    2.5208   -6.5024    3.6634 H   0  0  0  0  0  0  0  0  0  0  0  0
    1.5107   -5.1012    3.2955 H   0  0  0  0  0  0  0  0  0  0  0  0
    3.1337   -4.8631    3.9282 H   0  0  0  0  0  0  0  0  0  0  0  0
    4.5272   -6.9985    2.3301 H   0  0  0  0  0  0  0  0  0  0  0  0
    5.1608   -5.3586    2.5038 H   0  0  0  0  0  0  0  0  0  0  0  0
    4.9506   -6.0620    0.8966 H   0  0  0  0  0  0  0  0  0  0  0  0
   -1.5783   -6.8722    2.6948 H   0  0  0  0  0  0  0  0  0  0  0  0
   -2.1251   -5.2915    3.2620 H   0  0  0  0  0  0  0  0  0  0  0  0
   -0.6338   -5.4315    2.3255 H   0  0  0  0  0  0  0  0  0  0  0  0
   -3.7717   -7.2824    1.6396 H   0  0  0  0  0  0  0  0  0  0  0  0
   -4.4396   -6.1506    0.4585 H   0  0  0  0  0  0  0  0  0  0  0  0
   -4.3528   -5.6929    2.1566 H   0  0  0  0  0  0  0  0  0  0  0  0
   -1.5481   -7.4405    0.3122 H   0  0  0  0  0  0  0  0  0  0  0  0
   -0.7735   -5.9343   -0.2049 H   0  0  0  0  0  0  0  0  0  0  0  0
   -2.3235   -6.4009   -0.8882 H   0  0  0  0  0  0  0  0  0  0  0  0
   -3.7151   -4.6095   -1.0480 H   0  0  0  0  0  0  0  0  0  0  0  0
   -1.4321   -3.2748    2.3266 H   0  0  0  0  0  0  0  0  0  0  0  0
   -6.4113   -1.7705   -3.3936 H   0  0  0  0  0  0  0  0  0  0  0  0
   -7.0930    2.1789   -1.8586 H   0  0  0  0  0  0  0  0  0  0  0  0
   -3.9173    4.3584    0.4885 H   0  0  0  0  0  0  0  0  0  0  0  0
    0.0702    2.8250    0.7331 H   0  0  0  0  0  0  0  0  0  0  0  0
    0.6947    1.6246    4.1910 H   0  0  0  0  0  0  0  0  0  0  0  0
    3.1058    4.4486    2.0699 H   0  0  0  0  0  0  0  0  0  0  0  0
    0.8962   -3.8364    1.4816 H   0  0  0  0  0  0  0  0  0  0  0  0
    5.0935   -3.8250    0.6911 H   0  0  0  0  0  0  0  0  0  0  0  0
    5.0793    3.4449   -2.0122 H   0  0  0  0  0  0  0  0  0  0  0  0
    6.6681   -0.5297   -2.1827 H   0  0  0  0  0  0  0  0  0  0  0  0
  1  2  2  0  0  0  0
  1131  1  0  0  0  0
  2  3  1  0  0  0  0
  2 22  1  0  0  0  0
  3  4  2  0  0  0  0
  4  5  1  0  0  0  0
  5  6  2  0  0  0  0
  5130  1  0  0  0  0
  6 52  1  0  0  0  0
  6  1  1  0  0  0  0
  7  3  1  0  0  0  0
  7  8  1  0  0  0  0
  7 11  1  0  0  0  0
  8  9  2  0  0  0  0
  9 10  1  0  0  0  0
 10  4  1  0  0  0  0
 10 50  2  0  0  0  0
 11 12  2  0  0  0  0
 11 18  1  0  0  0  0
 13 14  1  0  0  0  0
 13 12  1  0  0  0  0
 13 51  2  0  0  0  0
 14  8  1  0  0  0  0
 14 15  2  0  0  0  0
 15 16  1  0  0  0  0
 15133  1  0  0  0  0
 16 60  1  0  0  0  0
 16 17  2  0  0  0  0
 17  9  1  0  0  0  0
 17132  1  0  0  0  0
 18 19  2  0  0  0  0
 18 23  1  0  0  0  0
 19 20  1  0  0  0  0
 19135  1  0  0  0  0
 20 56  1  0  0  0  0
 20 21  2  0  0  0  0
 21 12  1  0  0  0  0
 21134  1  0  0  0  0
 24 23  1  0  0  0  0
 24 22  1  0  0  0  0
 25 26  2  0  0  0  0
 25138  1  0  0  0  0
 26 27  1  0  0  0  0
 26 46  1  0  0  0  0
 27 28  2  0  0  0  0
 28 29  1  0  0  0  0
 28 47  1  0  0  0  0
 29 30  2  0  0  0  0
 29139  1  0  0  0  0
 30 64  1  0  0  0  0
 30 25  1  0  0  0  0
 31 27  1  0  0  0  0
 31 32  1  0  0  0  0
 32 33  2  0  0  0  0
 34 35  2  0  0  0  0
 34 41  1  0  0  0  0
 34 31  1  0  0  0  0
 36 37  1  0  0  0  0
 36 35  1  0  0  0  0
 36 48  2  0  0  0  0
 37 32  1  0  0  0  0
 37 38  2  0  0  0  0
 38 39  1  0  0  0  0
 38140  1  0  0  0  0
 39 72  1  0  0  0  0
 39 40  2  0  0  0  0
 40 33  1  0  0  0  0
 40141  1  0  0  0  0
 41 42  2  0  0  0  0
 41 45  1  0  0  0  0
 42 43  1  0  0  0  0
 42136  1  0  0  0  0
 43 68  1  0  0  0  0
 43 44  2  0  0  0  0
 44 35  1  0  0  0  0
 44137  1  0  0  0  0
 45 24  1  0  0  0  0
 46 24  1  0  0  0  0
 47 33  1  0  0  0  0
 47 49  2  0  0  0  0
 52 53  1  0  0  0  0
 52 54  1  0  0  0  0
 52 55  1  0  0  0  0
 53121  1  0  0  0  0
 53122  1  0  0  0  0
 53123  1  0  0  0  0
 54127  1  0  0  0  0
 54128  1  0  0  0  0
 54129  1  0  0  0  0
 55124  1  0  0  0  0
 55125  1  0  0  0  0
 55126  1  0  0  0  0
 56 57  1  0  0  0  0
 56 58  1  0  0  0  0
 56 59  1  0  0  0  0
 57 97  1  0  0  0  0
 57 98  1  0  0  0  0
 57 99  1  0  0  0  0
 58 94  1  0  0  0  0
 58 95  1  0  0  0  0
 58 96  1  0  0  0  0
 59100  1  0  0  0  0
 59101  1  0  0  0  0
 59102  1  0  0  0  0
 60 61  1  0  0  0  0
 60 62  1  0  0  0  0
 60 63  1  0  0  0  0
 61109  1  0  0  0  0
 61110  1  0  0  0  0
 61111  1  0  0  0  0
 62106  1  0  0  0  0
 62107  1  0  0  0  0
 62108  1  0  0  0  0
 63103  1  0  0  0  0
 63104  1  0  0  0  0
 63105  1  0  0  0  0
 64 65  1  0  0  0  0
 64 66  1  0  0  0  0
 64 67  1  0  0  0  0
 65112  1  0  0  0  0
 65113  1  0  0  0  0
 65114  1  0  0  0  0
 66115  1  0  0  0  0
 66116  1  0  0  0  0
 66117  1  0  0  0  0
 67118  1  0  0  0  0
 67119  1  0  0  0  0
 67120  1  0  0  0  0
 68 69  1  0  0  0  0
 68 70  1  0  0  0  0
 68 71  1  0  0  0  0
 69 91  1  0  0  0  0
 69 92  1  0  0  0  0
 69 93  1  0  0  0  0
 70 85  1  0  0  0  0
 70 86  1  0  0  0  0
 70 87  1  0  0  0  0
 71 88  1  0  0  0  0
 71 89  1  0  0  0  0
 71 90  1  0  0  0  0
 72 73  1  0  0  0  0
 72 74  1  0  0  0  0
 72 75  1  0  0  0  0
 73 79  1  0  0  0  0
 73 80  1  0  0  0  0
 73 81  1  0  0  0  0
 74 76  1  0  0  0  0
 74 77  1  0  0  0  0
 74 78  1  0  0  0  0
 75 82  1  0  0  0  0
 75 83  1  0  0  0  0
 75 84  1  0  0  0  0
M  CHG  1   1  -2
M  END
