 energy: -208.998881634462 gnorm: 0.000057744206 xtb: 6.7.1 (edcfbbe)
          03112513473D

141152  0     0  0            999 V2000
   -2.1512   -3.0647    1.6162 C   0  0  0  0  0  0  0  0  0  0  0  0
   -2.2226   -1.7369    1.1786 C   0  0  0  0  0  0  0  0  0  0  0  0
   -2.9175   -1.4003   -0.0158 C   0  0  0  0  0  0  0  0  0  0  0  0
   -3.3830   -2.5110   -0.7741 C   0  0  0  0  0  0  0  0  0  0  0  0
   -3.2133   -3.8135   -0.3556 C   0  0  0  0  0  0  0  0  0  0  0  0
   -2.6287   -4.1259    0.8749 C   0  0  0  0  0  0  0  0  0  0  0  0
   -3.2889   -0.0708   -0.3889 C   0  0  0  0  0  0  0  0  0  0  0  0
   -4.4183    0.0262   -1.2882 C   0  0  0  0  0  0  0  0  0  0  0  0
   -4.7781   -1.0290   -2.1466 C   0  0  0  0  0  0  0  0  0  0  0  0
   -4.1015   -2.3261   -2.0447 C   0  0  0  0  0  0  0  0  0  0  0  0
   -2.7382    1.1771    0.0696 C   0  0  0  0  0  0  0  0  0  0  0  0
   -3.5808    2.3250    0.0649 C   0  0  0  0  0  0  0  0  0  0  0  0
   -4.9642    2.2866   -0.4370 C   0  0  0  0  0  0  0  0  0  0  0  0
   -5.2300    1.1695   -1.3481 C   0  0  0  0  0  0  0  0  0  0  0  0
   -6.3044    1.2626   -2.2252 C   0  0  0  0  0  0  0  0  0  0  0  0
   -6.6028    0.2501   -3.1269 C   0  0  0  0  0  0  0  0  0  0  0  0
   -5.8145   -0.8949   -3.0589 C   0  0  0  0  0  0  0  0  0  0  0  0
   -1.3794    1.4308    0.4240 C   0  0  0  0  0  0  0  0  0  0  0  0
   -0.9584    2.7328    0.7383 C   0  0  0  0  0  0  0  0  0  0  0  0
   -1.8073    3.8201    0.7756 C   0  0  0  0  0  0  0  0  0  0  0  0
   -3.1404    3.5742    0.4481 C   0  0  0  0  0  0  0  0  0  0  0  0
   -1.6038   -0.8238    1.9268 O   0  0  0  0  0  0  0  0  0  0  0  0
   -0.4135    0.5101    0.3708 O   0  0  0  0  0  0  0  0  0  0  0  0
   -0.2568   -0.4964    1.4225 B   0  0  0  0  0  0  0  0  0  0  0  0
    1.7748   -3.4066    1.3881 C   0  0  0  0  0  0  0  0  0  0  0  0
    1.6156   -2.0583    1.0353 C   0  0  0  0  0  0  0  0  0  0  0  0
    2.7533   -1.2646    0.7131 C   0  0  0  0  0  0  0  0  0  0  0  0
    3.9358   -2.0252    0.4794 C   0  0  0  0  0  0  0  0  0  0  0  0
    4.0579   -3.3522    0.8545 C   0  0  0  0  0  0  0  0  0  0  0  0
    2.9898   -4.0630    1.3931 C   0  0  0  0  0  0  0  0  0  0  0  0
    2.8392    0.1708    0.5602 C   0  0  0  0  0  0  0  0  0  0  0  0
    3.8313    0.6457   -0.3797 C   0  0  0  0  0  0  0  0  0  0  0  0
    4.8241   -0.1884   -0.9165 C   0  0  0  0  0  0  0  0  0  0  0  0
    2.2477    1.1622    1.3901 C   0  0  0  0  0  0  0  0  0  0  0  0
    2.6706    2.5215    1.2613 C   0  0  0  0  0  0  0  0  0  0  0  0
    3.1711    3.0119   -0.0315 C   0  0  0  0  0  0  0  0  0  0  0  0
    3.8673    1.9874   -0.8085 C   0  0  0  0  0  0  0  0  0  0  0  0
    4.6881    2.3878   -1.8532 C   0  0  0  0  0  0  0  0  0  0  0  0
    5.5810    1.5169   -2.4711 C   0  0  0  0  0  0  0  0  0  0  0  0
    5.6746    0.2422   -1.9284 C   0  0  0  0  0  0  0  0  0  0  0  0
    1.3842    0.9472    2.5142 C   0  0  0  0  0  0  0  0  0  0  0  0
    1.4281    1.8336    3.5987 C   0  0  0  0  0  0  0  0  0  0  0  0
    2.0943    3.0436    3.5559 C   0  0  0  0  0  0  0  0  0  0  0  0
    2.6133    3.4156    2.3091 C   0  0  0  0  0  0  0  0  0  0  0  0
    0.5162   -0.0347    2.5969 O   0  0  0  0  0  0  0  0  0  0  0  0
    0.3477   -1.6901    0.9007 O   0  0  0  0  0  0  0  0  0  0  0  0
    5.0696   -1.4902   -0.2875 C   0  0  0  0  0  0  0  0  0  0  0  0
    3.0700    4.1799   -0.3711 O   0  0  0  0  0  0  0  0  0  0  0  0
    6.1190   -2.0959   -0.4356 O   0  0  0  0  0  0  0  0  0  0  0  0
   -4.2062   -3.2031   -2.8857 O   0  0  0  0  0  0  0  0  0  0  0  0
   -5.7887    3.1507   -0.1900 O   0  0  0  0  0  0  0  0  0  0  0  0
   -2.5349   -5.5741    1.3120 C   0  0  0  0  0  0  0  0  0  0  0  0
   -1.8019   -5.7387    2.6450 C   0  0  0  0  0  0  0  0  0  0  0  0
   -1.7866   -6.3707    0.2329 C   0  0  0  0  0  0  0  0  0  0  0  0
   -3.9592   -6.1267    1.4695 C   0  0  0  0  0  0  0  0  0  0  0  0
   -1.3771    5.2325    1.1139 C   0  0  0  0  0  0  0  0  0  0  0  0
   -1.6866    6.1444   -0.0823 C   0  0  0  0  0  0  0  0  0  0  0  0
   -2.1685    5.7000    2.3446 C   0  0  0  0  0  0  0  0  0  0  0  0
    0.1151    5.3341    1.4241 C   0  0  0  0  0  0  0  0  0  0  0  0
   -7.7326    0.3339   -4.1349 C   0  0  0  0  0  0  0  0  0  0  0  0
   -7.1458    0.1810   -5.5454 C   0  0  0  0  0  0  0  0  0  0  0  0
   -8.4820    1.6662   -4.0610 C   0  0  0  0  0  0  0  0  0  0  0  0
   -8.7281   -0.8022   -3.8597 C   0  0  0  0  0  0  0  0  0  0  0  0
    3.1091   -5.4840    1.9086 C   0  0  0  0  0  0  0  0  0  0  0  0
    2.2371   -6.4093    1.0499 C   0  0  0  0  0  0  0  0  0  0  0  0
    2.6258   -5.5174    3.3655 C   0  0  0  0  0  0  0  0  0  0  0  0
    4.5514   -5.9948    1.8660 C   0  0  0  0  0  0  0  0  0  0  0  0
    2.1919    3.9154    4.7922 C   0  0  0  0  0  0  0  0  0  0  0  0
    2.9486    3.1180    5.8657 C   0  0  0  0  0  0  0  0  0  0  0  0
    2.9511    5.2176    4.5262 C   0  0  0  0  0  0  0  0  0  0  0  0
    0.7899    4.2666    5.3092 C   0  0  0  0  0  0  0  0  0  0  0  0
    6.4404    2.0003   -3.6228 C   0  0  0  0  0  0  0  0  0  0  0  0
    7.3433    3.1377   -3.1242 C   0  0  0  0  0  0  0  0  0  0  0  0
    7.3244    0.8895   -4.1944 C   0  0  0  0  0  0  0  0  0  0  0  0
    5.5224    2.5164   -4.7399 C   0  0  0  0  0  0  0  0  0  0  0  0
    7.8851    1.2737   -5.0438 H   0  0  0  0  0  0  0  0  0  0  0  0
    6.7234    0.0508   -4.5381 H   0  0  0  0  0  0  0  0  0  0  0  0
    8.0384    0.5357   -3.4547 H   0  0  0  0  0  0  0  0  0  0  0  0
    7.9823    3.4856   -3.9325 H   0  0  0  0  0  0  0  0  0  0  0  0
    7.9755    2.7880   -2.3106 H   0  0  0  0  0  0  0  0  0  0  0  0
    6.7580    3.9797   -2.7652 H   0  0  0  0  0  0  0  0  0  0  0  0
    6.1190    2.8661   -5.5794 H   0  0  0  0  0  0  0  0  0  0  0  0
    4.9027    3.3397   -4.3962 H   0  0  0  0  0  0  0  0  0  0  0  0
    4.8696    1.7193   -5.0895 H   0  0  0  0  0  0  0  0  0  0  0  0
    3.0278    5.7867    5.4501 H   0  0  0  0  0  0  0  0  0  0  0  0
    2.4319    5.8327    3.7955 H   0  0  0  0  0  0  0  0  0  0  0  0
    3.9584    5.0163    4.1698 H   0  0  0  0  0  0  0  0  0  0  0  0
    0.8711    4.8602    6.2170 H   0  0  0  0  0  0  0  0  0  0  0  0
    0.2137    3.3744    5.5363 H   0  0  0  0  0  0  0  0  0  0  0  0
    0.2457    4.8484    4.5691 H   0  0  0  0  0  0  0  0  0  0  0  0
    3.0533    3.7149    6.7688 H   0  0  0  0  0  0  0  0  0  0  0  0
    3.9422    2.8541    5.5096 H   0  0  0  0  0  0  0  0  0  0  0  0
    2.4214    2.2023    6.1179 H   0  0  0  0  0  0  0  0  0  0  0  0
   -1.8591    6.7042    2.6265 H   0  0  0  0  0  0  0  0  0  0  0  0
   -1.9876    5.0319    3.1843 H   0  0  0  0  0  0  0  0  0  0  0  0
   -3.2364    5.7158    2.1473 H   0  0  0  0  0  0  0  0  0  0  0  0
   -1.3761    7.1626    0.1407 H   0  0  0  0  0  0  0  0  0  0  0  0
   -2.7476    6.1544   -0.3148 H   0  0  0  0  0  0  0  0  0  0  0  0
   -1.1442    5.8039   -0.9614 H   0  0  0  0  0  0  0  0  0  0  0  0
    0.3636    6.3630    1.6777 H   0  0  0  0  0  0  0  0  0  0  0  0
    0.7208    5.0458    0.5687 H   0  0  0  0  0  0  0  0  0  0  0  0
    0.3732    4.7008    2.2682 H   0  0  0  0  0  0  0  0  0  0  0  0
   -9.5555   -0.7492   -4.5636 H   0  0  0  0  0  0  0  0  0  0  0  0
   -9.1272   -0.7173   -2.8511 H   0  0  0  0  0  0  0  0  0  0  0  0
   -8.2567   -1.7757   -3.9605 H   0  0  0  0  0  0  0  0  0  0  0  0
   -9.2711    1.6796   -4.8098 H   0  0  0  0  0  0  0  0  0  0  0  0
   -7.8151    2.5017   -4.2604 H   0  0  0  0  0  0  0  0  0  0  0  0
   -8.9424    1.8033   -3.0856 H   0  0  0  0  0  0  0  0  0  0  0  0
   -7.9391    0.2434   -6.2868 H   0  0  0  0  0  0  0  0  0  0  0  0
   -6.6423   -0.7742   -5.6641 H   0  0  0  0  0  0  0  0  0  0  0  0
   -6.4268    0.9735   -5.7423 H   0  0  0  0  0  0  0  0  0  0  0  0
    2.3421   -7.4381    1.3869 H   0  0  0  0  0  0  0  0  0  0  0  0
    2.5413   -6.3545    0.0070 H   0  0  0  0  0  0  0  0  0  0  0  0
    1.1892   -6.1344    1.1163 H   0  0  0  0  0  0  0  0  0  0  0  0
    2.6872   -6.5308    3.7558 H   0  0  0  0  0  0  0  0  0  0  0  0
    1.5968   -5.1801    3.4503 H   0  0  0  0  0  0  0  0  0  0  0  0
    3.2470   -4.8715    3.9822 H   0  0  0  0  0  0  0  0  0  0  0  0
    4.5952   -6.9929    2.2968 H   0  0  0  0  0  0  0  0  0  0  0  0
    5.2109   -5.3492    2.4406 H   0  0  0  0  0  0  0  0  0  0  0  0
    4.9160   -6.0548    0.8438 H   0  0  0  0  0  0  0  0  0  0  0  0
   -1.7598   -6.7930    2.9105 H   0  0  0  0  0  0  0  0  0  0  0  0
   -2.3180   -5.2106    3.4431 H   0  0  0  0  0  0  0  0  0  0  0  0
   -0.7820   -5.3682    2.5792 H   0  0  0  0  0  0  0  0  0  0  0  0
   -3.9211   -7.1728    1.7650 H   0  0  0  0  0  0  0  0  0  0  0  0
   -4.5151   -6.0531    0.5390 H   0  0  0  0  0  0  0  0  0  0  0  0
   -4.4972   -5.5703    2.2340 H   0  0  0  0  0  0  0  0  0  0  0  0
   -1.6059   -7.3870    0.5762 H   0  0  0  0  0  0  0  0  0  0  0  0
   -0.8302   -5.9023    0.0107 H   0  0  0  0  0  0  0  0  0  0  0  0
   -2.3579   -6.4217   -0.6891 H   0  0  0  0  0  0  0  0  0  0  0  0
   -3.5756   -4.5862   -1.0166 H   0  0  0  0  0  0  0  0  0  0  0  0
   -1.6486   -3.2063    2.5590 H   0  0  0  0  0  0  0  0  0  0  0  0
   -5.9975   -1.7418   -3.7036 H   0  0  0  0  0  0  0  0  0  0  0  0
   -6.8874    2.1683   -2.1716 H   0  0  0  0  0  0  0  0  0  0  0  0
   -3.8732    4.3669    0.4414 H   0  0  0  0  0  0  0  0  0  0  0  0
    0.0927    2.8443    0.9474 H   0  0  0  0  0  0  0  0  0  0  0  0
    0.8550    1.5356    4.4626 H   0  0  0  0  0  0  0  0  0  0  0  0
    2.9957    4.4065    2.1269 H   0  0  0  0  0  0  0  0  0  0  0  0
    0.8611   -3.9139    1.6547 H   0  0  0  0  0  0  0  0  0  0  0  0
    5.0186   -3.8094    0.6797 H   0  0  0  0  0  0  0  0  0  0  0  0
    4.6296    3.4280   -2.1378 H   0  0  0  0  0  0  0  0  0  0  0  0
    6.4180   -0.4647   -2.2610 H   0  0  0  0  0  0  0  0  0  0  0  0
  1  2  2  0  0  0  0
  1131  1  0  0  0  0
  2  3  1  0  0  0  0
  2 22  1  0  0  0  0
  3  4  2  0  0  0  0
  4  5  1  0  0  0  0
  5  6  2  0  0  0  0
  5130  1  0  0  0  0
  6 52  1  0  0  0  0
  6  1  1  0  0  0  0
  7  3  1  0  0  0  0
  7  8  1  0  0  0  0
  7 11  1  0  0  0  0
  8  9  2  0  0  0  0
  9 10  1  0  0  0  0
 10  4  1  0  0  0  0
 10 50  2  0  0  0  0
 11 12  2  0  0  0  0
 11 18  1  0  0  0  0
 13 14  1  0  0  0  0
 13 12  1  0  0  0  0
 13 51  2  0  0  0  0
 14  8  1  0  0  0  0
 14 15  2  0  0  0  0
 15 16  1  0  0  0  0
 15133  1  0  0  0  0
 16 60  1  0  0  0  0
 16 17  2  0  0  0  0
 17  9  1  0  0  0  0
 17132  1  0  0  0  0
 18 19  2  0  0  0  0
 18 23  1  0  0  0  0
 19 20  1  0  0  0  0
 19135  1  0  0  0  0
 20 56  1  0  0  0  0
 20 21  2  0  0  0  0
 21 12  1  0  0  0  0
 21134  1  0  0  0  0
 24 23  1  0  0  0  0
 24 22  1  0  0  0  0
 25 26  2  0  0  0  0
 25138  1  0  0  0  0
 26 27  1  0  0  0  0
 26 46  1  0  0  0  0
 27 28  2  0  0  0  0
 28 29  1  0  0  0  0
 28 47  1  0  0  0  0
 29 30  2  0  0  0  0
 29139  1  0  0  0  0
 30 64  1  0  0  0  0
 30 25  1  0  0  0  0
 31 27  1  0  0  0  0
 31 32  1  0  0  0  0
 32 33  2  0  0  0  0
 34 35  2  0  0  0  0
 34 41  1  0  0  0  0
 34 31  1  0  0  0  0
 36 37  1  0  0  0  0
 36 35  1  0  0  0  0
 36 48  2  0  0  0  0
 37 32  1  0  0  0  0
 37 38  2  0  0  0  0
 38 39  1  0  0  0  0
 38140  1  0  0  0  0
 39 72  1  0  0  0  0
 39 40  2  0  0  0  0
 40 33  1  0  0  0  0
 40141  1  0  0  0  0
 41 42  2  0  0  0  0
 41 45  1  0  0  0  0
 42 43  1  0  0  0  0
 42136  1  0  0  0  0
 43 68  1  0  0  0  0
 43 44  2  0  0  0  0
 44 35  1  0  0  0  0
 44137  1  0  0  0  0
 45 24  1  0  0  0  0
 46 24  1  0  0  0  0
 47 33  1  0  0  0  0
 47 49  2  0  0  0  0
 52 53  1  0  0  0  0
 52 54  1  0  0  0  0
 52 55  1  0  0  0  0
 53121  1  0  0  0  0
 53122  1  0  0  0  0
 53123  1  0  0  0  0
 54127  1  0  0  0  0
 54128  1  0  0  0  0
 54129  1  0  0  0  0
 55124  1  0  0  0  0
 55125  1  0  0  0  0
 55126  1  0  0  0  0
 56 57  1  0  0  0  0
 56 58  1  0  0  0  0
 56 59  1  0  0  0  0
 57 97  1  0  0  0  0
 57 98  1  0  0  0  0
 57 99  1  0  0  0  0
 58 94  1  0  0  0  0
 58 95  1  0  0  0  0
 58 96  1  0  0  0  0
 59100  1  0  0  0  0
 59101  1  0  0  0  0
 59102  1  0  0  0  0
 60 61  1  0  0  0  0
 60 62  1  0  0  0  0
 60 63  1  0  0  0  0
 61109  1  0  0  0  0
 61110  1  0  0  0  0
 61111  1  0  0  0  0
 62106  1  0  0  0  0
 62107  1  0  0  0  0
 62108  1  0  0  0  0
 63103  1  0  0  0  0
 63104  1  0  0  0  0
 63105  1  0  0  0  0
 64 65  1  0  0  0  0
 64 66  1  0  0  0  0
 64 67  1  0  0  0  0
 65112  1  0  0  0  0
 65113  1  0  0  0  0
 65114  1  0  0  0  0
 66115  1  0  0  0  0
 66116  1  0  0  0  0
 66117  1  0  0  0  0
 67118  1  0  0  0  0
 67119  1  0  0  0  0
 67120  1  0  0  0  0
 68 69  1  0  0  0  0
 68 70  1  0  0  0  0
 68 71  1  0  0  0  0
 69 91  1  0  0  0  0
 69 92  1  0  0  0  0
 69 93  1  0  0  0  0
 70 85  1  0  0  0  0
 70 86  1  0  0  0  0
 70 87  1  0  0  0  0
 71 88  1  0  0  0  0
 71 89  1  0  0  0  0
 71 90  1  0  0  0  0
 72 73  1  0  0  0  0
 72 74  1  0  0  0  0
 72 75  1  0  0  0  0
 73 79  1  0  0  0  0
 73 80  1  0  0  0  0
 73 81  1  0  0  0  0
 74 76  1  0  0  0  0
 74 77  1  0  0  0  0
 74 78  1  0  0  0  0
 75 82  1  0  0  0  0
 75 83  1  0  0  0  0
 75 84  1  0  0  0  0
M  CHG  1   1   0
M  END
