 energy: -126.644643966957 gnorm: 0.000153579484 xtb: 6.7.1 (edcfbbe)
          02242515533D

 78 82  0     0  0            999 V2000
    0.9415    3.3484   -3.3371 C   0  0  0  0  0  0  0  0  0  0  0  0
    2.1252   -3.4886   -0.9541 C   0  0  0  0  0  0  0  0  0  0  0  0
   -3.5251    1.3934   -1.9179 C   0  0  0  0  0  0  0  0  0  0  0  0
   -2.5692    0.5083   -1.4614 C   0  0  0  0  0  0  0  0  0  0  0  0
   -1.1867    0.7896   -1.6746 C   0  0  0  0  0  0  0  0  0  0  0  0
   -0.8152    1.8765   -2.5086 C   0  0  0  0  0  0  0  0  0  0  0  0
   -1.8082    2.7639   -2.9354 C   0  0  0  0  0  0  0  0  0  0  0  0
   -3.1319    2.5324   -2.6223 C   0  0  0  0  0  0  0  0  0  0  0  0
   -0.1476   -0.0183   -1.1325 C   0  0  0  0  0  0  0  0  0  0  0  0
    1.0680   -0.0488   -1.8379 C   0  0  0  0  0  0  0  0  0  0  0  0
    1.3822    1.0027   -2.7475 C   0  0  0  0  0  0  0  0  0  0  0  0
    0.4968    2.0416   -2.8769 N   0  0  0  0  0  0  0  0  0  0  0  0
   -0.2190   -0.7935    0.0610 C   0  0  0  0  0  0  0  0  0  0  0  0
    0.6431   -1.9141    0.1775 C   0  0  0  0  0  0  0  0  0  0  0  0
    1.5934   -2.1449   -0.7881 N   0  0  0  0  0  0  0  0  0  0  0  0
    1.9723   -1.1313   -1.6333 C   0  0  0  0  0  0  0  0  0  0  0  0
    3.1832   -1.1309   -2.3172 C   0  0  0  0  0  0  0  0  0  0  0  0
    3.4710   -0.1073   -3.2088 C   0  0  0  0  0  0  0  0  0  0  0  0
    2.5886    0.9388   -3.4356 C   0  0  0  0  0  0  0  0  0  0  0  0
   -1.0646   -0.4426    1.1542 C   0  0  0  0  0  0  0  0  0  0  0  0
   -1.1616   -1.2972    2.2329 C   0  0  0  0  0  0  0  0  0  0  0  0
   -0.3987   -2.4651    2.2740 C   0  0  0  0  0  0  0  0  0  0  0  0
    0.5101   -2.7654    1.2802 C   0  0  0  0  0  0  0  0  0  0  0  0
   -1.6690    0.7560    1.0811 O   0  0  0  0  0  0  0  0  0  0  0  0
   -2.8484   -0.6686   -0.8720 O   0  0  0  0  0  0  0  0  0  0  0  0
   -4.1305    3.5292   -3.1167 C   0  0  0  0  0  0  0  0  0  0  0  0
   -0.5775   -3.3491    3.4660 C   0  0  0  0  0  0  0  0  0  0  0  0
    4.7578   -0.0793   -3.9724 C   0  0  0  0  0  0  0  0  0  0  0  0
    5.0586    0.8165   -4.7180 O   0  0  0  0  0  0  0  0  0  0  0  0
    5.5168   -1.1463   -3.7329 O   0  0  0  0  0  0  0  0  0  0  0  0
    6.7648   -1.1906   -4.4190 C   0  0  0  0  0  0  0  0  0  0  0  0
   -3.8212    4.5252   -3.7190 O   0  0  0  0  0  0  0  0  0  0  0  0
   -5.3825    3.1928   -2.8139 O   0  0  0  0  0  0  0  0  0  0  0  0
   -6.3941    4.0954   -3.2508 C   0  0  0  0  0  0  0  0  0  0  0  0
   -1.3748   -3.1233    4.3394 O   0  0  0  0  0  0  0  0  0  0  0  0
    0.2376   -4.4033    3.4467 O   0  0  0  0  0  0  0  0  0  0  0  0
    0.1302   -5.2978    4.5503 C   0  0  0  0  0  0  0  0  0  0  0  0
   -4.5755    1.2259   -1.7556 H   0  0  0  0  0  0  0  0  0  0  0  0
   -1.5940    3.6252   -3.5444 H   0  0  0  0  0  0  0  0  0  0  0  0
   -1.8071   -1.0970    3.0722 H   0  0  0  0  0  0  0  0  0  0  0  0
    1.1293   -3.6356    1.4016 H   0  0  0  0  0  0  0  0  0  0  0  0
    3.9311   -1.8874   -2.1568 H   0  0  0  0  0  0  0  0  0  0  0  0
    2.8794    1.6634   -4.1779 H   0  0  0  0  0  0  0  0  0  0  0  0
    1.0276   -4.4665   -1.3896 C   0  0  0  0  0  0  0  0  0  0  0  0
    1.5982   -5.8673   -1.5677 C   0  0  0  0  0  0  0  0  0  0  0  0
    0.8723    4.3841   -2.2088 C   0  0  0  0  0  0  0  0  0  0  0  0
    1.3179    5.7505   -2.7127 C   0  0  0  0  0  0  0  0  0  0  0  0
   -2.4541    1.1931    2.1732 C   0  0  0  0  0  0  0  0  0  0  0  0
   -4.1993   -1.0380   -0.6814 C   0  0  0  0  0  0  0  0  0  0  0  0
   -7.3421    3.6578   -2.9508 H   0  0  0  0  0  0  0  0  0  0  0  0
   -6.3502    4.2155   -4.3345 H   0  0  0  0  0  0  0  0  0  0  0  0
   -6.2554    5.0719   -2.7836 H   0  0  0  0  0  0  0  0  0  0  0  0
    0.9627   -5.9906    4.4631 H   0  0  0  0  0  0  0  0  0  0  0  0
   -0.8196   -5.8338    4.5082 H   0  0  0  0  0  0  0  0  0  0  0  0
    0.1818   -4.7465    5.4905 H   0  0  0  0  0  0  0  0  0  0  0  0
    7.2366   -2.1258   -4.1307 H   0  0  0  0  0  0  0  0  0  0  0  0
    7.3847   -0.3408   -4.1287 H   0  0  0  0  0  0  0  0  0  0  0  0
    6.6036   -1.1558   -5.4977 H   0  0  0  0  0  0  0  0  0  0  0  0
    2.5957   -3.8263   -0.0277 H   0  0  0  0  0  0  0  0  0  0  0  0
    2.8877   -3.4742   -1.7290 H   0  0  0  0  0  0  0  0  0  0  0  0
    0.6017   -4.1188   -2.3333 H   0  0  0  0  0  0  0  0  0  0  0  0
    0.2264   -4.4880   -0.6498 H   0  0  0  0  0  0  0  0  0  0  0  0
    2.3852   -5.8721   -2.3178 H   0  0  0  0  0  0  0  0  0  0  0  0
    0.8180   -6.5512   -1.8885 H   0  0  0  0  0  0  0  0  0  0  0  0
    2.0118   -6.2359   -0.6322 H   0  0  0  0  0  0  0  0  0  0  0  0
   -2.8168    2.1802    1.8921 H   0  0  0  0  0  0  0  0  0  0  0  0
   -1.8579    1.2701    3.0857 H   0  0  0  0  0  0  0  0  0  0  0  0
   -3.3028    0.5270    2.3477 H   0  0  0  0  0  0  0  0  0  0  0  0
   -4.1677   -2.0117   -0.1956 H   0  0  0  0  0  0  0  0  0  0  0  0
   -4.7267   -1.1241   -1.6349 H   0  0  0  0  0  0  0  0  0  0  0  0
   -4.7218   -0.3263   -0.0370 H   0  0  0  0  0  0  0  0  0  0  0  0
    1.2848    6.4759   -1.9052 H   0  0  0  0  0  0  0  0  0  0  0  0
    0.6642    6.0970   -3.5091 H   0  0  0  0  0  0  0  0  0  0  0  0
    2.3351    5.7095   -3.0939 H   0  0  0  0  0  0  0  0  0  0  0  0
    1.5222    4.0605   -1.3927 H   0  0  0  0  0  0  0  0  0  0  0  0
   -0.1451    4.4510   -1.8210 H   0  0  0  0  0  0  0  0  0  0  0  0
    0.3388    3.6698   -4.1890 H   0  0  0  0  0  0  0  0  0  0  0  0
    1.9740    3.2792   -3.6689 H   0  0  0  0  0  0  0  0  0  0  0  0
  1 46  1  0  0  0  0
  1 77  1  0  0  0  0
  1 78  1  0  0  0  0
  2 44  1  0  0  0  0
  2 59  1  0  0  0  0
  2 60  1  0  0  0  0
  3  4  2  0  0  0  0
  3 38  1  0  0  0  0
  4  5  1  0  0  0  0
  4 25  1  0  0  0  0
  5  6  2  0  0  0  0
  5  9  1  0  0  0  0
  6  7  1  0  0  0  0
  7  8  2  0  0  0  0
  7 39  1  0  0  0  0
  8  3  1  0  0  0  0
  8 26  1  0  0  0  0
  9 10  1  0  0  0  0
 10 11  2  0  0  0  0
 11 12  1  0  0  0  0
 12  1  1  0  0  0  0
 12  6  1  0  0  0  0
 13 14  2  0  0  0  0
 13 20  1  0  0  0  0
 13  9  1  0  0  0  0
 14 15  1  0  0  0  0
 15  2  1  0  0  0  0
 15 16  1  0  0  0  0
 16 10  1  0  0  0  0
 16 17  2  0  0  0  0
 17 18  1  0  0  0  0
 17 42  1  0  0  0  0
 18 19  2  0  0  0  0
 18 28  1  0  0  0  0
 19 11  1  0  0  0  0
 19 43  1  0  0  0  0
 20 21  2  0  0  0  0
 21 22  1  0  0  0  0
 21 40  1  0  0  0  0
 22 23  2  0  0  0  0
 22 27  1  0  0  0  0
 23 14  1  0  0  0  0
 23 41  1  0  0  0  0
 24 48  1  0  0  0  0
 24 20  1  0  0  0  0
 25 49  1  0  0  0  0
 26 32  2  0  0  0  0
 26 33  1  0  0  0  0
 27 35  2  0  0  0  0
 27 36  1  0  0  0  0
 28 29  2  0  0  0  0
 28 30  1  0  0  0  0
 30 31  1  0  0  0  0
 31 56  1  0  0  0  0
 31 57  1  0  0  0  0
 31 58  1  0  0  0  0
 33 34  1  0  0  0  0
 34 50  1  0  0  0  0
 34 51  1  0  0  0  0
 34 52  1  0  0  0  0
 36 37  1  0  0  0  0
 37 53  1  0  0  0  0
 37 54  1  0  0  0  0
 37 55  1  0  0  0  0
 44 45  1  0  0  0  0
 44 61  1  0  0  0  0
 44 62  1  0  0  0  0
 45 63  1  0  0  0  0
 45 64  1  0  0  0  0
 45 65  1  0  0  0  0
 46 47  1  0  0  0  0
 46 75  1  0  0  0  0
 46 76  1  0  0  0  0
 47 72  1  0  0  0  0
 47 73  1  0  0  0  0
 47 74  1  0  0  0  0
 48 66  1  0  0  0  0
 48 67  1  0  0  0  0
 48 68  1  0  0  0  0
 49 69  1  0  0  0  0
 49 70  1  0  0  0  0
 49 71  1  0  0  0  0
M  CHG  1   1   1
M  END
