 energy: -254.055829836387 gnorm: 0.000210747265 xtb: 6.7.1 (edcfbbe)
          02242515553D

156164  0     0  0            999 V2000
    0.9136    3.2396   -3.9046 C   0  0  0  0  0  0  0  0  0  0  0  0
    1.4888   -2.8929    0.0210 C   0  0  0  0  0  0  0  0  0  0  0  0
   -3.8058    1.6733   -2.8987 C   0  0  0  0  0  0  0  0  0  0  0  0
   -2.9705    0.8209   -2.2096 C   0  0  0  0  0  0  0  0  0  0  0  0
   -1.5857    1.1183   -2.0882 C   0  0  0  0  0  0  0  0  0  0  0  0
   -1.0275    2.1385   -2.8972 C   0  0  0  0  0  0  0  0  0  0  0  0
   -1.8962    3.0264   -3.5241 C   0  0  0  0  0  0  0  0  0  0  0  0
   -3.2717    2.8173   -3.4956 C   0  0  0  0  0  0  0  0  0  0  0  0
   -0.7292    0.3887   -1.2150 C   0  0  0  0  0  0  0  0  0  0  0  0
    0.6473    0.3387   -1.5551 C   0  0  0  0  0  0  0  0  0  0  0  0
    1.1858    1.2803   -2.4665 C   0  0  0  0  0  0  0  0  0  0  0  0
    0.3484    2.2280   -3.0324 N   0  0  0  0  0  0  0  0  0  0  0  0
   -1.1210   -0.2391    0.0052 C   0  0  0  0  0  0  0  0  0  0  0  0
   -0.2995   -1.2630    0.5366 C   0  0  0  0  0  0  0  0  0  0  0  0
    0.8722   -1.5917   -0.1315 N   0  0  0  0  0  0  0  0  0  0  0  0
    1.4583   -0.6774   -0.9954 C   0  0  0  0  0  0  0  0  0  0  0  0
    2.7928   -0.7649   -1.3662 C   0  0  0  0  0  0  0  0  0  0  0  0
    3.3297    0.1892   -2.2236 C   0  0  0  0  0  0  0  0  0  0  0  0
    2.5440    1.2155   -2.7437 C   0  0  0  0  0  0  0  0  0  0  0  0
   -2.2422    0.2040    0.7608 C   0  0  0  0  0  0  0  0  0  0  0  0
   -2.6278   -0.4851    1.8895 C   0  0  0  0  0  0  0  0  0  0  0  0
   -1.8598   -1.5541    2.3549 C   0  0  0  0  0  0  0  0  0  0  0  0
   -0.6761   -1.9023    1.7119 C   0  0  0  0  0  0  0  0  0  0  0  0
   -2.8321    1.3529    0.3396 O   0  0  0  0  0  0  0  0  0  0  0  0
   -3.3673   -0.3632   -1.6657 O   0  0  0  0  0  0  0  0  0  0  0  0
   -4.1255    3.8119   -4.1623 C   0  0  0  0  0  0  0  0  0  0  0  0
   -2.3345   -2.2590    3.5538 C   0  0  0  0  0  0  0  0  0  0  0  0
    4.7365    0.1551   -2.6623 C   0  0  0  0  0  0  0  0  0  0  0  0
    5.2740    1.0362   -3.2918 O   0  0  0  0  0  0  0  0  0  0  0  0
    5.3692   -0.9932   -2.3452 O   0  0  0  0  0  0  0  0  0  0  0  0
    6.7141   -1.0810   -2.7910 C   0  0  0  0  0  0  0  0  0  0  0  0
   -3.7153    4.7876   -4.7501 O   0  0  0  0  0  0  0  0  0  0  0  0
   -5.4413    3.5315   -4.0555 O   0  0  0  0  0  0  0  0  0  0  0  0
   -6.3142    4.4594   -4.6760 C   0  0  0  0  0  0  0  0  0  0  0  0
   -3.4206   -2.0828    4.0602 O   0  0  0  0  0  0  0  0  0  0  0  0
   -1.4458   -3.1556    4.0286 O   0  0  0  0  0  0  0  0  0  0  0  0
   -1.8267   -3.8387    5.2133 C   0  0  0  0  0  0  0  0  0  0  0  0
   -4.8634    1.4929   -2.9815 H   0  0  0  0  0  0  0  0  0  0  0  0
   -1.5652    3.9135   -4.0354 H   0  0  0  0  0  0  0  0  0  0  0  0
   -3.4967   -0.2061    2.4619 H   0  0  0  0  0  0  0  0  0  0  0  0
   -0.0670   -2.6649    2.1626 H   0  0  0  0  0  0  0  0  0  0  0  0
    3.4385   -1.5350   -0.9867 H   0  0  0  0  0  0  0  0  0  0  0  0
    3.0538    1.9207   -3.3764 H   0  0  0  0  0  0  0  0  0  0  0  0
    1.5062   -3.6740   -1.2983 C   0  0  0  0  0  0  0  0  0  0  0  0
    2.1300   -5.0490   -1.0980 C   0  0  0  0  0  0  0  0  0  0  0  0
    1.3392    4.4869   -3.1269 C   0  0  0  0  0  0  0  0  0  0  0  0
    1.8910    5.5550   -4.0609 C   0  0  0  0  0  0  0  0  0  0  0  0
   -4.0060    1.7946    0.9799 C   0  0  0  0  0  0  0  0  0  0  0  0
   -4.7185   -0.7319   -1.7781 C   0  0  0  0  0  0  0  0  0  0  0  0
   -7.3231    4.0919   -4.5050 H   0  0  0  0  0  0  0  0  0  0  0  0
   -6.1048    4.5225   -5.7462 H   0  0  0  0  0  0  0  0  0  0  0  0
   -6.1882    5.4520   -4.2378 H   0  0  0  0  0  0  0  0  0  0  0  0
   -1.1843   -4.7130    5.2913 H   0  0  0  0  0  0  0  0  0  0  0  0
   -2.8757   -4.1365    5.1555 H   0  0  0  0  0  0  0  0  0  0  0  0
   -1.6840   -3.1856    6.0760 H   0  0  0  0  0  0  0  0  0  0  0  0
    7.0255   -2.1124   -2.6403 H   0  0  0  0  0  0  0  0  0  0  0  0
    7.3479   -0.4010   -2.2176 H   0  0  0  0  0  0  0  0  0  0  0  0
    6.7783   -0.8111   -3.8473 H   0  0  0  0  0  0  0  0  0  0  0  0
    0.9105   -3.4710    0.7378 H   0  0  0  0  0  0  0  0  0  0  0  0
    2.5046   -2.7893    0.4168 H   0  0  0  0  0  0  0  0  0  0  0  0
    2.0661   -3.1237   -2.0549 H   0  0  0  0  0  0  0  0  0  0  0  0
    0.4794   -3.7792   -1.6549 H   0  0  0  0  0  0  0  0  0  0  0  0
    3.1531   -4.9541   -0.7408 H   0  0  0  0  0  0  0  0  0  0  0  0
    2.1436   -5.6004   -2.0344 H   0  0  0  0  0  0  0  0  0  0  0  0
    1.5646   -5.6252   -0.3686 H   0  0  0  0  0  0  0  0  0  0  0  0
   -4.3395    2.6586    0.4065 H   0  0  0  0  0  0  0  0  0  0  0  0
   -3.8111    2.1006    2.0102 H   0  0  0  0  0  0  0  0  0  0  0  0
   -4.7834    1.0248    0.9707 H   0  0  0  0  0  0  0  0  0  0  0  0
   -4.8056   -1.6846   -1.2570 H   0  0  0  0  0  0  0  0  0  0  0  0
   -5.0134   -0.8615   -2.8250 H   0  0  0  0  0  0  0  0  0  0  0  0
   -5.3812    0.0004   -1.3067 H   0  0  0  0  0  0  0  0  0  0  0  0
    2.1909    6.4333   -3.4957 H   0  0  0  0  0  0  0  0  0  0  0  0
    1.1387    5.8547   -4.7870 H   0  0  0  0  0  0  0  0  0  0  0  0
    2.7592    5.1807   -4.5987 H   0  0  0  0  0  0  0  0  0  0  0  0
    2.0996    4.2091   -2.3948 H   0  0  0  0  0  0  0  0  0  0  0  0
    0.4775    4.8784   -2.5830 H   0  0  0  0  0  0  0  0  0  0  0  0
    0.1808    3.5058   -4.6660 H   0  0  0  0  0  0  0  0  0  0  0  0
    1.7694    2.8211   -4.4355 H   0  0  0  0  0  0  0  0  0  0  0  0
    0.3352    2.1237    1.8681 C   0  0  0  0  0  0  0  0  0  0  0  0
    2.2220   -4.1304    4.9582 C   0  0  0  0  0  0  0  0  0  0  0  0
   -3.1232    1.2332    5.4621 C   0  0  0  0  0  0  0  0  0  0  0  0
   -2.1540    0.2693    5.6402 C   0  0  0  0  0  0  0  0  0  0  0  0
   -0.9223    0.3536    4.9312 C   0  0  0  0  0  0  0  0  0  0  0  0
   -0.7943    1.3024    3.8838 C   0  0  0  0  0  0  0  0  0  0  0  0
   -1.7545    2.3013    3.7732 C   0  0  0  0  0  0  0  0  0  0  0  0
   -2.8933    2.2860    4.5757 C   0  0  0  0  0  0  0  0  0  0  0  0
    0.1600   -0.5320    5.1899 C   0  0  0  0  0  0  0  0  0  0  0  0
    1.1306   -0.6985    4.1730 C   0  0  0  0  0  0  0  0  0  0  0  0
    1.2399    0.2472    3.1253 C   0  0  0  0  0  0  0  0  0  0  0  0
    0.2843    1.2385    3.0156 N   0  0  0  0  0  0  0  0  0  0  0  0
    0.4110   -1.2141    6.4221 C   0  0  0  0  0  0  0  0  0  0  0  0
    1.1815   -2.4019    6.3941 C   0  0  0  0  0  0  0  0  0  0  0  0
    1.7731   -2.7749    5.1985 N   0  0  0  0  0  0  0  0  0  0  0  0
    2.0124   -1.8019    4.2396 C   0  0  0  0  0  0  0  0  0  0  0  0
    3.0735   -1.8860    3.3545 C   0  0  0  0  0  0  0  0  0  0  0  0
    3.2562   -0.8782    2.4102 C   0  0  0  0  0  0  0  0  0  0  0  0
    2.3396    0.1641    2.2804 C   0  0  0  0  0  0  0  0  0  0  0  0
    0.0102   -0.6897    7.6802 C   0  0  0  0  0  0  0  0  0  0  0  0
    0.1608   -1.4521    8.8197 C   0  0  0  0  0  0  0  0  0  0  0  0
    0.7932   -2.6956    8.7543 C   0  0  0  0  0  0  0  0  0  0  0  0
    1.3496   -3.1409    7.5594 C   0  0  0  0  0  0  0  0  0  0  0  0
   -0.4443    0.5910    7.6795 O   0  0  0  0  0  0  0  0  0  0  0  0
   -2.3138   -0.8155    6.4404 O   0  0  0  0  0  0  0  0  0  0  0  0
   -3.8621    3.3807    4.4209 C   0  0  0  0  0  0  0  0  0  0  0  0
    0.9106   -3.4698    9.9989 C   0  0  0  0  0  0  0  0  0  0  0  0
    4.4478   -0.8575    1.5476 C   0  0  0  0  0  0  0  0  0  0  0  0
    4.8131    0.0910    0.8928 O   0  0  0  0  0  0  0  0  0  0  0  0
    5.1152   -2.0327    1.5645 O   0  0  0  0  0  0  0  0  0  0  0  0
    6.2952   -2.0750    0.7782 C   0  0  0  0  0  0  0  0  0  0  0  0
   -3.7924    4.2491    3.5782 O   0  0  0  0  0  0  0  0  0  0  0  0
   -4.8653    3.3269    5.3211 O   0  0  0  0  0  0  0  0  0  0  0  0
   -5.8341    4.3558    5.2187 C   0  0  0  0  0  0  0  0  0  0  0  0
    0.4882   -3.1131   11.0756 O   0  0  0  0  0  0  0  0  0  0  0  0
    1.5454   -4.6496    9.8260 O   0  0  0  0  0  0  0  0  0  0  0  0
    1.6940   -5.4384   10.9940 C   0  0  0  0  0  0  0  0  0  0  0  0
   -4.0568    1.2036    5.9957 H   0  0  0  0  0  0  0  0  0  0  0  0
   -1.6576    3.1289    3.0917 H   0  0  0  0  0  0  0  0  0  0  0  0
   -0.1762   -1.1172    9.7866 H   0  0  0  0  0  0  0  0  0  0  0  0
    1.9288   -4.0473    7.5814 H   0  0  0  0  0  0  0  0  0  0  0  0
    3.7988   -2.6783    3.4179 H   0  0  0  0  0  0  0  0  0  0  0  0
    2.5544    0.8947    1.5201 H   0  0  0  0  0  0  0  0  0  0  0  0
    1.6920   -4.6862    3.6316 C   0  0  0  0  0  0  0  0  0  0  0  0
    1.9866   -6.1763    3.5121 C   0  0  0  0  0  0  0  0  0  0  0  0
    1.1360    3.4003    2.1330 C   0  0  0  0  0  0  0  0  0  0  0  0
    1.2585    4.2210    0.8561 C   0  0  0  0  0  0  0  0  0  0  0  0
   -0.8763    1.1508    8.8947 C   0  0  0  0  0  0  0  0  0  0  0  0
   -3.5745   -1.0351    7.0283 C   0  0  0  0  0  0  0  0  0  0  0  0
   -6.5543    4.1771    6.0133 H   0  0  0  0  0  0  0  0  0  0  0  0
   -6.3234    4.3227    4.2425 H   0  0  0  0  0  0  0  0  0  0  0  0
   -5.3644    5.3345    5.3393 H   0  0  0  0  0  0  0  0  0  0  0  0
    2.2215   -6.3390   10.6893 H   0  0  0  0  0  0  0  0  0  0  0  0
    0.7162   -5.6891   11.4114 H   0  0  0  0  0  0  0  0  0  0  0  0
    2.2662   -4.8959   11.7498 H   0  0  0  0  0  0  0  0  0  0  0  0
    6.6859   -3.0859    0.8683 H   0  0  0  0  0  0  0  0  0  0  0  0
    7.0231   -1.3493    1.1473 H   0  0  0  0  0  0  0  0  0  0  0  0
    6.0594   -1.8401   -0.2605 H   0  0  0  0  0  0  0  0  0  0  0  0
    1.8344   -4.7607    5.7574 H   0  0  0  0  0  0  0  0  0  0  0  0
    3.3171   -4.1908    4.9817 H   0  0  0  0  0  0  0  0  0  0  0  0
    2.1503   -4.1608    2.7939 H   0  0  0  0  0  0  0  0  0  0  0  0
    0.6154   -4.5142    3.5899 H   0  0  0  0  0  0  0  0  0  0  0  0
    3.0581   -6.3588    3.5563 H   0  0  0  0  0  0  0  0  0  0  0  0
    1.6140   -6.5622    2.5666 H   0  0  0  0  0  0  0  0  0  0  0  0
    1.5122   -6.7319    4.3182 H   0  0  0  0  0  0  0  0  0  0  0  0
   -1.2192    2.1546    8.6469 H   0  0  0  0  0  0  0  0  0  0  0  0
   -0.0598    1.2139    9.6214 H   0  0  0  0  0  0  0  0  0  0  0  0
   -1.7028    0.5811    9.3306 H   0  0  0  0  0  0  0  0  0  0  0  0
   -3.4701   -1.9505    7.6101 H   0  0  0  0  0  0  0  0  0  0  0  0
   -4.3389   -1.1763    6.2595 H   0  0  0  0  0  0  0  0  0  0  0  0
   -3.8601   -0.2157    7.6955 H   0  0  0  0  0  0  0  0  0  0  0  0
    1.8065    5.1405    1.0432 H   0  0  0  0  0  0  0  0  0  0  0  0
    0.2737    4.4773    0.4719 H   0  0  0  0  0  0  0  0  0  0  0  0
    1.7874    3.6537    0.0931 H   0  0  0  0  0  0  0  0  0  0  0  0
    2.1297    3.1337    2.4980 H   0  0  0  0  0  0  0  0  0  0  0  0
    0.6423    3.9868    2.9099 H   0  0  0  0  0  0  0  0  0  0  0  0
   -0.6805    2.3769    1.5628 H   0  0  0  0  0  0  0  0  0  0  0  0
    0.7800    1.5812    1.0320 H   0  0  0  0  0  0  0  0  0  0  0  0
  1 46  1  0  0  0  0
  1 77  1  0  0  0  0
  1 78  1  0  0  0  0
  2 44  1  0  0  0  0
  2 59  1  0  0  0  0
  2 60  1  0  0  0  0
  3  4  2  0  0  0  0
  3 38  1  0  0  0  0
  4  5  1  0  0  0  0
  4 25  1  0  0  0  0
  5  6  2  0  0  0  0
  5  9  1  0  0  0  0
  6  7  1  0  0  0  0
  7  8  2  0  0  0  0
  7 39  1  0  0  0  0
  8  3  1  0  0  0  0
  8 26  1  0  0  0  0
  9 10  1  0  0  0  0
 10 11  2  0  0  0  0
 11 12  1  0  0  0  0
 12  1  1  0  0  0  0
 12  6  1  0  0  0  0
 13 14  2  0  0  0  0
 13 20  1  0  0  0  0
 13  9  1  0  0  0  0
 14 15  1  0  0  0  0
 15  2  1  0  0  0  0
 15 16  1  0  0  0  0
 16 10  1  0  0  0  0
 16 17  2  0  0  0  0
 17 18  1  0  0  0  0
 17 42  1  0  0  0  0
 18 19  2  0  0  0  0
 18 28  1  0  0  0  0
 19 11  1  0  0  0  0
 19 43  1  0  0  0  0
 20 21  2  0  0  0  0
 21 22  1  0  0  0  0
 21 40  1  0  0  0  0
 22 23  2  0  0  0  0
 22 27  1  0  0  0  0
 23 14  1  0  0  0  0
 23 41  1  0  0  0  0
 24 48  1  0  0  0  0
 24 20  1  0  0  0  0
 25 49  1  0  0  0  0
 26 32  2  0  0  0  0
 26 33  1  0  0  0  0
 27 35  2  0  0  0  0
 27 36  1  0  0  0  0
 28 29  2  0  0  0  0
 28 30  1  0  0  0  0
 30 31  1  0  0  0  0
 31 56  1  0  0  0  0
 31 57  1  0  0  0  0
 31 58  1  0  0  0  0
 33 34  1  0  0  0  0
 34 50  1  0  0  0  0
 34 51  1  0  0  0  0
 34 52  1  0  0  0  0
 36 37  1  0  0  0  0
 37 53  1  0  0  0  0
 37 54  1  0  0  0  0
 37 55  1  0  0  0  0
 44 45  1  0  0  0  0
 44 61  1  0  0  0  0
 44 62  1  0  0  0  0
 45 63  1  0  0  0  0
 45 64  1  0  0  0  0
 45 65  1  0  0  0  0
 46 47  1  0  0  0  0
 46 75  1  0  0  0  0
 46 76  1  0  0  0  0
 47 72  1  0  0  0  0
 47 73  1  0  0  0  0
 47 74  1  0  0  0  0
 48 66  1  0  0  0  0
 48 67  1  0  0  0  0
 48 68  1  0  0  0  0
 49 69  1  0  0  0  0
 49 70  1  0  0  0  0
 49 71  1  0  0  0  0
 79124  1  0  0  0  0
 79155  1  0  0  0  0
 79156  1  0  0  0  0
 80122  1  0  0  0  0
 80137  1  0  0  0  0
 80138  1  0  0  0  0
 81 82  2  0  0  0  0
 81116  1  0  0  0  0
 82 83  1  0  0  0  0
 82103  1  0  0  0  0
 83 84  2  0  0  0  0
 83 87  1  0  0  0  0
 84 85  1  0  0  0  0
 85 86  2  0  0  0  0
 85117  1  0  0  0  0
 86 81  1  0  0  0  0
 86104  1  0  0  0  0
 87 88  1  0  0  0  0
 88 89  2  0  0  0  0
 89 90  1  0  0  0  0
 90 79  1  0  0  0  0
 90 84  1  0  0  0  0
 91 92  2  0  0  0  0
 91 98  1  0  0  0  0
 91 87  1  0  0  0  0
 92 93  1  0  0  0  0
 93 80  1  0  0  0  0
 93 94  1  0  0  0  0
 94 88  1  0  0  0  0
 94 95  2  0  0  0  0
 95 96  1  0  0  0  0
 95120  1  0  0  0  0
 96 97  2  0  0  0  0
 96106  1  0  0  0  0
 97 89  1  0  0  0  0
 97121  1  0  0  0  0
 98 99  2  0  0  0  0
 99100  1  0  0  0  0
 99118  1  0  0  0  0
100101  2  0  0  0  0
100105  1  0  0  0  0
101 92  1  0  0  0  0
101119  1  0  0  0  0
102126  1  0  0  0  0
102 98  1  0  0  0  0
103127  1  0  0  0  0
104110  2  0  0  0  0
104111  1  0  0  0  0
105113  2  0  0  0  0
105114  1  0  0  0  0
106107  2  0  0  0  0
106108  1  0  0  0  0
108109  1  0  0  0  0
109134  1  0  0  0  0
109135  1  0  0  0  0
109136  1  0  0  0  0
111112  1  0  0  0  0
112128  1  0  0  0  0
112129  1  0  0  0  0
112130  1  0  0  0  0
114115  1  0  0  0  0
115131  1  0  0  0  0
115132  1  0  0  0  0
115133  1  0  0  0  0
122123  1  0  0  0  0
122139  1  0  0  0  0
122140  1  0  0  0  0
123141  1  0  0  0  0
123142  1  0  0  0  0
123143  1  0  0  0  0
124125  1  0  0  0  0
124153  1  0  0  0  0
124154  1  0  0  0  0
125150  1  0  0  0  0
125151  1  0  0  0  0
125152  1  0  0  0  0
126144  1  0  0  0  0
126145  1  0  0  0  0
126146  1  0  0  0  0
127147  1  0  0  0  0
127148  1  0  0  0  0
127149  1  0  0  0  0
M  END
