 energy: -127.008970921938 gnorm: 0.000529887880 xtb: 6.7.1 (edcfbbe)
          02242515523D

 78 82  0     0  0            999 V2000
    0.9618    3.3586   -3.2916 C   0  0  0  0  0  0  0  0  0  0  0  0
    2.5429   -3.1372   -0.4087 C   0  0  0  0  0  0  0  0  0  0  0  0
   -3.5566    1.5184   -1.8349 C   0  0  0  0  0  0  0  0  0  0  0  0
   -2.6071    0.6186   -1.3956 C   0  0  0  0  0  0  0  0  0  0  0  0
   -1.2261    0.8804   -1.6039 C   0  0  0  0  0  0  0  0  0  0  0  0
   -0.8579    1.9510   -2.4512 C   0  0  0  0  0  0  0  0  0  0  0  0
   -1.8285    2.8469   -2.8834 C   0  0  0  0  0  0  0  0  0  0  0  0
   -3.1629    2.6554   -2.5433 C   0  0  0  0  0  0  0  0  0  0  0  0
   -0.1904    0.0519   -1.0694 C   0  0  0  0  0  0  0  0  0  0  0  0
    1.0073   -0.0351   -1.8219 C   0  0  0  0  0  0  0  0  0  0  0  0
    1.3018    0.9735   -2.7719 C   0  0  0  0  0  0  0  0  0  0  0  0
    0.4640    2.0744   -2.8422 N   0  0  0  0  0  0  0  0  0  0  0  0
   -0.2899   -0.7421    0.1071 C   0  0  0  0  0  0  0  0  0  0  0  0
    0.5525   -1.8740    0.2428 C   0  0  0  0  0  0  0  0  0  0  0  0
    1.6149   -2.0468   -0.6328 N   0  0  0  0  0  0  0  0  0  0  0  0
    1.8903   -1.1272   -1.6322 C   0  0  0  0  0  0  0  0  0  0  0  0
    2.9836   -1.2507   -2.4804 C   0  0  0  0  0  0  0  0  0  0  0  0
    3.2349   -0.2841   -3.4528 C   0  0  0  0  0  0  0  0  0  0  0  0
    2.4118    0.8304   -3.5882 C   0  0  0  0  0  0  0  0  0  0  0  0
   -1.1688   -0.4082    1.1743 C   0  0  0  0  0  0  0  0  0  0  0  0
   -1.3847   -1.3074    2.1949 C   0  0  0  0  0  0  0  0  0  0  0  0
   -0.7116   -2.5314    2.1949 C   0  0  0  0  0  0  0  0  0  0  0  0
    0.2752   -2.7945    1.2486 C   0  0  0  0  0  0  0  0  0  0  0  0
   -1.7010    0.8435    1.1357 O   0  0  0  0  0  0  0  0  0  0  0  0
   -2.9094   -0.5740   -0.8133 O   0  0  0  0  0  0  0  0  0  0  0  0
   -4.1383    3.6566   -3.0037 C   0  0  0  0  0  0  0  0  0  0  0  0
   -1.0479   -3.4974    3.2504 C   0  0  0  0  0  0  0  0  0  0  0  0
    4.3806   -0.4005   -4.3708 C   0  0  0  0  0  0  0  0  0  0  0  0
    4.6753    0.4215   -5.2082 O   0  0  0  0  0  0  0  0  0  0  0  0
    5.0897   -1.5340   -4.1873 O   0  0  0  0  0  0  0  0  0  0  0  0
    6.2051   -1.7009   -5.0457 C   0  0  0  0  0  0  0  0  0  0  0  0
   -3.8553    4.6574   -3.6227 O   0  0  0  0  0  0  0  0  0  0  0  0
   -5.4077    3.3505   -2.6639 O   0  0  0  0  0  0  0  0  0  0  0  0
   -6.3922    4.2793   -3.0844 C   0  0  0  0  0  0  0  0  0  0  0  0
   -1.8937   -3.3179    4.0981 O   0  0  0  0  0  0  0  0  0  0  0  0
   -0.3042   -4.6232    3.1764 O   0  0  0  0  0  0  0  0  0  0  0  0
   -0.5504   -5.6320    4.1424 C   0  0  0  0  0  0  0  0  0  0  0  0
   -4.6067    1.3643   -1.6558 H   0  0  0  0  0  0  0  0  0  0  0  0
   -1.5957    3.6981   -3.4994 H   0  0  0  0  0  0  0  0  0  0  0  0
   -2.0724   -1.1150    3.0015 H   0  0  0  0  0  0  0  0  0  0  0  0
    0.7835   -3.7384    1.3222 H   0  0  0  0  0  0  0  0  0  0  0  0
    3.6583   -2.0859   -2.4392 H   0  0  0  0  0  0  0  0  0  0  0  0
    2.6560    1.5338   -4.3668 H   0  0  0  0  0  0  0  0  0  0  0  0
    2.1807   -4.3794   -1.2267 C   0  0  0  0  0  0  0  0  0  0  0  0
    3.1734   -5.5081   -0.9836 C   0  0  0  0  0  0  0  0  0  0  0  0
    0.9114    4.3959   -2.1640 C   0  0  0  0  0  0  0  0  0  0  0  0
    1.4405    5.7418   -2.6410 C   0  0  0  0  0  0  0  0  0  0  0  0
   -2.5644    1.2346    2.1738 C   0  0  0  0  0  0  0  0  0  0  0  0
   -4.2604   -0.9040   -0.6109 C   0  0  0  0  0  0  0  0  0  0  0  0
   -7.3511    3.8701   -2.7748 H   0  0  0  0  0  0  0  0  0  0  0  0
   -6.3593    4.4033   -4.1694 H   0  0  0  0  0  0  0  0  0  0  0  0
   -6.2215    5.2525   -2.6177 H   0  0  0  0  0  0  0  0  0  0  0  0
    0.3943   -5.8743    4.6298 H   0  0  0  0  0  0  0  0  0  0  0  0
   -0.9428   -6.5151    3.6355 H   0  0  0  0  0  0  0  0  0  0  0  0
   -1.2737   -5.2729    4.8774 H   0  0  0  0  0  0  0  0  0  0  0  0
    6.6478   -2.6600   -4.7885 H   0  0  0  0  0  0  0  0  0  0  0  0
    6.9252   -0.8934   -4.8954 H   0  0  0  0  0  0  0  0  0  0  0  0
    5.8861   -1.6928   -6.0902 H   0  0  0  0  0  0  0  0  0  0  0  0
    2.5572   -3.3787    0.6551 H   0  0  0  0  0  0  0  0  0  0  0  0
    3.5511   -2.8036   -0.6612 H   0  0  0  0  0  0  0  0  0  0  0  0
    2.1687   -4.1174   -2.2864 H   0  0  0  0  0  0  0  0  0  0  0  0
    1.1747   -4.7044   -0.9546 H   0  0  0  0  0  0  0  0  0  0  0  0
    4.1780   -5.2021   -1.2675 H   0  0  0  0  0  0  0  0  0  0  0  0
    2.9042   -6.3836   -1.5686 H   0  0  0  0  0  0  0  0  0  0  0  0
    3.1850   -5.7883    0.0674 H   0  0  0  0  0  0  0  0  0  0  0  0
   -2.8779    2.2481    1.9263 H   0  0  0  0  0  0  0  0  0  0  0  0
   -2.0530    1.2377    3.1419 H   0  0  0  0  0  0  0  0  0  0  0  0
   -3.4441    0.5864    2.2358 H   0  0  0  0  0  0  0  0  0  0  0  0
   -4.2515   -1.8797   -0.1265 H   0  0  0  0  0  0  0  0  0  0  0  0
   -4.8039   -0.9730   -1.5591 H   0  0  0  0  0  0  0  0  0  0  0  0
   -4.7627   -0.1815    0.0402 H   0  0  0  0  0  0  0  0  0  0  0  0
    1.4197    6.4656   -1.8306 H   0  0  0  0  0  0  0  0  0  0  0  0
    0.8298    6.1233   -3.4559 H   0  0  0  0  0  0  0  0  0  0  0  0
    2.4656    5.6494   -2.9933 H   0  0  0  0  0  0  0  0  0  0  0  0
    1.5148    4.0332   -1.3289 H   0  0  0  0  0  0  0  0  0  0  0  0
   -0.1138    4.5090   -1.8096 H   0  0  0  0  0  0  0  0  0  0  0  0
    0.3921    3.7105   -4.1569 H   0  0  0  0  0  0  0  0  0  0  0  0
    1.9992    3.2423   -3.5994 H   0  0  0  0  0  0  0  0  0  0  0  0
  1 46  1  0  0  0  0
  1 77  1  0  0  0  0
  1 78  1  0  0  0  0
  2 44  1  0  0  0  0
  2 59  1  0  0  0  0
  2 60  1  0  0  0  0
  3  4  2  0  0  0  0
  3 38  1  0  0  0  0
  4  5  1  0  0  0  0
  4 25  1  0  0  0  0
  5  6  2  0  0  0  0
  5  9  1  0  0  0  0
  6  7  1  0  0  0  0
  7  8  2  0  0  0  0
  7 39  1  0  0  0  0
  8  3  1  0  0  0  0
  8 26  1  0  0  0  0
  9 10  1  0  0  0  0
 10 11  2  0  0  0  0
 11 12  1  0  0  0  0
 12  1  1  0  0  0  0
 12  6  1  0  0  0  0
 13 14  2  0  0  0  0
 13 20  1  0  0  0  0
 13  9  1  0  0  0  0
 14 15  1  0  0  0  0
 15  2  1  0  0  0  0
 15 16  1  0  0  0  0
 16 10  1  0  0  0  0
 16 17  2  0  0  0  0
 17 18  1  0  0  0  0
 17 42  1  0  0  0  0
 18 19  2  0  0  0  0
 18 28  1  0  0  0  0
 19 11  1  0  0  0  0
 19 43  1  0  0  0  0
 20 21  2  0  0  0  0
 21 22  1  0  0  0  0
 21 40  1  0  0  0  0
 22 23  2  0  0  0  0
 22 27  1  0  0  0  0
 23 14  1  0  0  0  0
 23 41  1  0  0  0  0
 24 48  1  0  0  0  0
 24 20  1  0  0  0  0
 25 49  1  0  0  0  0
 26 32  2  0  0  0  0
 26 33  1  0  0  0  0
 27 35  2  0  0  0  0
 27 36  1  0  0  0  0
 28 29  2  0  0  0  0
 28 30  1  0  0  0  0
 30 31  1  0  0  0  0
 31 56  1  0  0  0  0
 31 57  1  0  0  0  0
 31 58  1  0  0  0  0
 33 34  1  0  0  0  0
 34 50  1  0  0  0  0
 34 51  1  0  0  0  0
 34 52  1  0  0  0  0
 36 37  1  0  0  0  0
 37 53  1  0  0  0  0
 37 54  1  0  0  0  0
 37 55  1  0  0  0  0
 44 45  1  0  0  0  0
 44 61  1  0  0  0  0
 44 62  1  0  0  0  0
 45 63  1  0  0  0  0
 45 64  1  0  0  0  0
 45 65  1  0  0  0  0
 46 47  1  0  0  0  0
 46 75  1  0  0  0  0
 46 76  1  0  0  0  0
 47 72  1  0  0  0  0
 47 73  1  0  0  0  0
 47 74  1  0  0  0  0
 48 66  1  0  0  0  0
 48 67  1  0  0  0  0
 48 68  1  0  0  0  0
 49 69  1  0  0  0  0
 49 70  1  0  0  0  0
 49 71  1  0  0  0  0
M  END
