 energy: -106.945974846975 gnorm: 0.000201644940 xtb: 6.7.1 (edcfbbe)
          03042511433D

 58 62  0     0  0            999 V2000
   -2.5729    2.4710   -2.0927 C   0  0  0  0  0  0  0  0  0  0  0  0
   -2.2950    1.3183   -1.3916 C   0  0  0  0  0  0  0  0  0  0  0  0
   -1.2599    1.3095   -0.4283 C   0  0  0  0  0  0  0  0  0  0  0  0
   -0.3457    2.4142   -0.4094 C   0  0  0  0  0  0  0  0  0  0  0  0
   -0.6707    3.5863   -1.1256 C   0  0  0  0  0  0  0  0  0  0  0  0
   -1.7938    3.6279   -1.9170 C   0  0  0  0  0  0  0  0  0  0  0  0
   -0.9964    0.2501    0.4960 C   0  0  0  0  0  0  0  0  0  0  0  0
    0.3115    0.1601    0.9943 C   0  0  0  0  0  0  0  0  0  0  0  0
    1.2119    1.2530    0.8176 C   0  0  0  0  0  0  0  0  0  0  0  0
    0.8291    2.3804    0.2237 N   0  0  0  0  0  0  0  0  0  0  0  0
   -1.9259   -0.7317    0.9547 C   0  0  0  0  0  0  0  0  0  0  0  0
   -1.3743   -1.9346    1.5028 C   0  0  0  0  0  0  0  0  0  0  0  0
   -0.0825   -2.0689    1.8121 N   0  0  0  0  0  0  0  0  0  0  0  0
    0.7279   -1.0224    1.6765 C   0  0  0  0  0  0  0  0  0  0  0  0
    2.0533   -1.0916    2.1505 C   0  0  0  0  0  0  0  0  0  0  0  0
    2.9176   -0.0140    1.9931 C   0  0  0  0  0  0  0  0  0  0  0  0
    2.5141    1.1494    1.3490 C   0  0  0  0  0  0  0  0  0  0  0  0
   -3.3355   -0.5594    0.9581 C   0  0  0  0  0  0  0  0  0  0  0  0
   -4.1401   -1.6494    1.2226 C   0  0  0  0  0  0  0  0  0  0  0  0
   -3.5828   -2.8897    1.5827 C   0  0  0  0  0  0  0  0  0  0  0  0
   -2.2287   -3.0283    1.7653 C   0  0  0  0  0  0  0  0  0  0  0  0
   -3.7862    0.6998    0.7785 O   0  0  0  0  0  0  0  0  0  0  0  0
   -3.0421    0.1974   -1.6871 O   0  0  0  0  0  0  0  0  0  0  0  0
   -2.1113    4.8872   -2.6384 C   0  0  0  0  0  0  0  0  0  0  0  0
   -4.5313   -4.0076    1.8242 C   0  0  0  0  0  0  0  0  0  0  0  0
   -0.0080    4.4347   -1.0656 H   0  0  0  0  0  0  0  0  0  0  0  0
   -3.3884    2.4719   -2.7978 H   0  0  0  0  0  0  0  0  0  0  0  0
    3.1843    1.9856    1.2392 H   0  0  0  0  0  0  0  0  0  0  0  0
    2.3920   -1.9869    2.6472 H   0  0  0  0  0  0  0  0  0  0  0  0
   -1.7954   -3.9413    2.1361 H   0  0  0  0  0  0  0  0  0  0  0  0
   -5.2153   -1.5878    1.1792 H   0  0  0  0  0  0  0  0  0  0  0  0
   -1.4422    5.8886   -2.5859 O   0  0  0  0  0  0  0  0  0  0  0  0
   -3.2376    4.7947   -3.3605 O   0  0  0  0  0  0  0  0  0  0  0  0
   -3.6097    5.9636   -4.0750 C   0  0  0  0  0  0  0  0  0  0  0  0
    4.2959   -0.1528    2.5415 C   0  0  0  0  0  0  0  0  0  0  0  0
    4.7063   -1.1403    3.0981 O   0  0  0  0  0  0  0  0  0  0  0  0
    5.0367    0.9450    2.3495 O   0  0  0  0  0  0  0  0  0  0  0  0
    6.3654    0.8897    2.8469 C   0  0  0  0  0  0  0  0  0  0  0  0
   -5.7300   -3.9136    1.7148 O   0  0  0  0  0  0  0  0  0  0  0  0
   -3.9124   -5.1407    2.1748 O   0  0  0  0  0  0  0  0  0  0  0  0
   -4.7550   -6.2552    2.4256 C   0  0  0  0  0  0  0  0  0  0  0  0
   -5.1743    0.9157    0.6767 C   0  0  0  0  0  0  0  0  0  0  0  0
   -2.3224   -0.8755   -2.2578 C   0  0  0  0  0  0  0  0  0  0  0  0
   -4.1003   -7.0703    2.7225 H   0  0  0  0  0  0  0  0  0  0  0  0
   -5.3134   -6.5194    1.5250 H   0  0  0  0  0  0  0  0  0  0  0  0
   -5.4655   -6.0225    3.2217 H   0  0  0  0  0  0  0  0  0  0  0  0
    6.8155    1.8523    2.6186 H   0  0  0  0  0  0  0  0  0  0  0  0
    6.9181    0.0819    2.3629 H   0  0  0  0  0  0  0  0  0  0  0  0
    6.3600    0.7130    3.9244 H   0  0  0  0  0  0  0  0  0  0  0  0
   -3.0415   -1.6825   -2.3868 H   0  0  0  0  0  0  0  0  0  0  0  0
   -1.5063   -1.2217   -1.6167 H   0  0  0  0  0  0  0  0  0  0  0  0
   -1.9125   -0.5915   -3.2336 H   0  0  0  0  0  0  0  0  0  0  0  0
   -5.2894    1.9838    0.5005 H   0  0  0  0  0  0  0  0  0  0  0  0
   -5.6915    0.6397    1.6007 H   0  0  0  0  0  0  0  0  0  0  0  0
   -5.5966    0.3604   -0.1647 H   0  0  0  0  0  0  0  0  0  0  0  0
   -4.5219    5.7153   -4.6113 H   0  0  0  0  0  0  0  0  0  0  0  0
   -2.8191    6.2501   -4.7716 H   0  0  0  0  0  0  0  0  0  0  0  0
   -3.7830    6.7912   -3.3841 H   0  0  0  0  0  0  0  0  0  0  0  0
  1  6  2  0  0  0  0
  1  2  1  0  0  0  0
  2  3  2  0  0  0  0
  3  7  1  0  0  0  0
  4  3  1  0  0  0  0
  4 10  1  0  0  0  0
  5  4  2  0  0  0  0
  6  5  1  0  0  0  0
  7 11  2  0  0  0  0
  7  8  1  0  0  0  0
  8 14  1  0  0  0  0
  9  8  2  0  0  0  0
  9 17  1  0  0  0  0
 10  9  1  0  0  0  0
 11 12  1  0  0  0  0
 12 21  1  0  0  0  0
 12 13  2  0  0  0  0
 14 13  1  0  0  0  0
 14 15  2  0  0  0  0
 15 29  1  0  0  0  0
 16 15  1  0  0  0  0
 16 35  1  0  0  0  0
 17 16  2  0  0  0  0
 18 11  1  0  0  0  0
 18 19  2  0  0  0  0
 19 20  1  0  0  0  0
 20 21  2  0  0  0  0
 20 25  1  0  0  0  0
 21 30  1  0  0  0  0
 22 18  1  0  0  0  0
 23  2  1  0  0  0  0
 24  6  1  0  0  0  0
 25 40  1  0  0  0  0
 26  5  1  0  0  0  0
 27  1  1  0  0  0  0
 28 17  1  0  0  0  0
 31 19  1  0  0  0  0
 32 24  2  0  0  0  0
 33 34  1  0  0  0  0
 33 24  1  0  0  0  0
 34 57  1  0  0  0  0
 34 58  1  0  0  0  0
 35 36  2  0  0  0  0
 37 35  1  0  0  0  0
 38 37  1  0  0  0  0
 39 25  2  0  0  0  0
 41 44  1  0  0  0  0
 41 40  1  0  0  0  0
 42 54  1  0  0  0  0
 42 22  1  0  0  0  0
 43 23  1  0  0  0  0
 45 41  1  0  0  0  0
 46 41  1  0  0  0  0
 47 38  1  0  0  0  0
 48 38  1  0  0  0  0
 49 38  1  0  0  0  0
 50 43  1  0  0  0  0
 51 43  1  0  0  0  0
 52 43  1  0  0  0  0
 53 42  1  0  0  0  0
 55 42  1  0  0  0  0
 56 34  1  0  0  0  0
M  END
