 energy: -200.900838501277 gnorm: 0.000301355945 xtb: 6.7.1 (edcfbbe)
          03172513193D

101112  0     0  0            999 V2000
   -0.0824    4.4393   -0.0684 C   0  0  0  0  0  0  0  0  0  0  0  0
    0.3461    3.2676    0.5356 C   0  0  0  0  0  0  0  0  0  0  0  0
    1.7235    2.9267    0.5115 C   0  0  0  0  0  0  0  0  0  0  0  0
    2.6366    3.9663    0.1055 C   0  0  0  0  0  0  0  0  0  0  0  0
    2.1603    5.1306   -0.5354 C   0  0  0  0  0  0  0  0  0  0  0  0
    0.8085    5.3517   -0.6443 C   0  0  0  0  0  0  0  0  0  0  0  0
    2.3018    1.6791    0.9371 C   0  0  0  0  0  0  0  0  0  0  0  0
    3.6574    1.7592    1.3300 C   0  0  0  0  0  0  0  0  0  0  0  0
    4.4301    2.9321    1.0729 C   0  0  0  0  0  0  0  0  0  0  0  0
    3.9429    3.9457    0.3627 N   0  0  0  0  0  0  0  0  0  0  0  0
    1.7246    0.3562    0.9140 C   0  0  0  0  0  0  0  0  0  0  0  0
    2.5135   -0.6994    1.5052 C   0  0  0  0  0  0  0  0  0  0  0  0
    3.6890   -0.5173    2.1030 N   0  0  0  0  0  0  0  0  0  0  0  0
    4.2950    0.6596    1.9756 C   0  0  0  0  0  0  0  0  0  0  0  0
    5.6094    0.7896    2.4611 C   0  0  0  0  0  0  0  0  0  0  0  0
    6.3305    1.9548    2.2333 C   0  0  0  0  0  0  0  0  0  0  0  0
    5.7605    3.0044    1.5243 C   0  0  0  0  0  0  0  0  0  0  0  0
    0.5475   -0.0552    0.2236 C   0  0  0  0  0  0  0  0  0  0  0  0
    0.2908   -1.4140    0.0350 C   0  0  0  0  0  0  0  0  0  0  0  0
    1.0760   -2.4194    0.6091 C   0  0  0  0  0  0  0  0  0  0  0  0
    2.1319   -2.0573    1.4056 C   0  0  0  0  0  0  0  0  0  0  0  0
   -0.5403    2.5261    1.2088 O   0  0  0  0  0  0  0  0  0  0  0  0
   -0.3251    0.7655   -0.3628 O   0  0  0  0  0  0  0  0  0  0  0  0
    0.3144    6.5837   -1.2994 C   0  0  0  0  0  0  0  0  0  0  0  0
    0.7903   -3.8507    0.3656 C   0  0  0  0  0  0  0  0  0  0  0  0
    7.7268    2.1068    2.7030 C   0  0  0  0  0  0  0  0  0  0  0  0
   -1.6948   -1.4384    1.9738 C   0  0  0  0  0  0  0  0  0  0  0  0
   -2.3865   -0.4846    1.2300 C   0  0  0  0  0  0  0  0  0  0  0  0
   -3.4200   -0.8854    0.3364 C   0  0  0  0  0  0  0  0  0  0  0  0
   -3.5791   -2.3083    0.1567 C   0  0  0  0  0  0  0  0  0  0  0  0
   -2.8068   -3.2419    0.8850 C   0  0  0  0  0  0  0  0  0  0  0  0
   -1.9119   -2.8126    1.8307 C   0  0  0  0  0  0  0  0  0  0  0  0
   -4.4120   -0.0373   -0.2805 C   0  0  0  0  0  0  0  0  0  0  0  0
   -5.4973   -0.7038   -0.8948 C   0  0  0  0  0  0  0  0  0  0  0  0
   -5.4433   -2.1049   -1.1563 C   0  0  0  0  0  0  0  0  0  0  0  0
   -4.4789   -2.8683   -0.6515 N   0  0  0  0  0  0  0  0  0  0  0  0
   -4.5314    1.3991   -0.2305 C   0  0  0  0  0  0  0  0  0  0  0  0
   -5.8701    1.9291   -0.3382 C   0  0  0  0  0  0  0  0  0  0  0  0
   -6.9006    1.2430   -0.8273 N   0  0  0  0  0  0  0  0  0  0  0  0
   -6.6930   -0.0041   -1.2392 C   0  0  0  0  0  0  0  0  0  0  0  0
   -7.7069   -0.6615   -1.9584 C   0  0  0  0  0  0  0  0  0  0  0  0
   -7.5671   -1.9943   -2.3252 C   0  0  0  0  0  0  0  0  0  0  0  0
   -6.4550   -2.7197   -1.9176 C   0  0  0  0  0  0  0  0  0  0  0  0
   -3.4856    2.3620   -0.1647 C   0  0  0  0  0  0  0  0  0  0  0  0
   -3.7920    3.6795    0.1473 C   0  0  0  0  0  0  0  0  0  0  0  0
   -5.1093    4.1316    0.2839 C   0  0  0  0  0  0  0  0  0  0  0  0
   -6.1428    3.2718    0.0007 C   0  0  0  0  0  0  0  0  0  0  0  0
   -2.0396    0.7803    1.4636 O   0  0  0  0  0  0  0  0  0  0  0  0
   -2.2300    2.0724   -0.5198 O   0  0  0  0  0  0  0  0  0  0  0  0
   -1.1193   -3.7337    2.6776 C   0  0  0  0  0  0  0  0  0  0  0  0
   -5.4034    5.5367    0.6401 C   0  0  0  0  0  0  0  0  0  0  0  0
   -8.6492   -2.6177   -3.1199 C   0  0  0  0  0  0  0  0  0  0  0  0
   -1.2923    1.5366    0.4497 B   0  0  0  0  0  0  0  0  0  0  0  0
    8.4087    3.0897    2.5373 O   0  0  0  0  0  0  0  0  0  0  0  0
    8.1789    1.0158    3.3475 O   0  0  0  0  0  0  0  0  0  0  0  0
    9.5123    1.0915    3.8189 C   0  0  0  0  0  0  0  0  0  0  0  0
   -0.1810   -4.0271   -0.5401 O   0  0  0  0  0  0  0  0  0  0  0  0
   -0.5389   -5.3684   -0.8254 C   0  0  0  0  0  0  0  0  0  0  0  0
    1.3729   -4.7728    0.8889 O   0  0  0  0  0  0  0  0  0  0  0  0
   -0.3588   -3.3807    3.5445 O   0  0  0  0  0  0  0  0  0  0  0  0
   -1.3433   -5.0271    2.3860 O   0  0  0  0  0  0  0  0  0  0  0  0
   -0.5513   -5.9631    3.1038 C   0  0  0  0  0  0  0  0  0  0  0  0
   -9.6445   -2.0492   -3.5003 O   0  0  0  0  0  0  0  0  0  0  0  0
   -8.4136   -3.9157   -3.3895 O   0  0  0  0  0  0  0  0  0  0  0  0
   -9.4100   -4.5731   -4.1516 C   0  0  0  0  0  0  0  0  0  0  0  0
   -6.5099    5.9973    0.7955 O   0  0  0  0  0  0  0  0  0  0  0  0
   -4.2888    6.2767    0.7750 O   0  0  0  0  0  0  0  0  0  0  0  0
   -4.4816    7.6328    1.1303 C   0  0  0  0  0  0  0  0  0  0  0  0
    1.0099    7.4144   -1.8347 O   0  0  0  0  0  0  0  0  0  0  0  0
   -1.0233    6.6929   -1.2344 O   0  0  0  0  0  0  0  0  0  0  0  0
   -1.5889    7.8378   -1.8436 C   0  0  0  0  0  0  0  0  0  0  0  0
   -9.4933   -4.1193   -5.1420 H   0  0  0  0  0  0  0  0  0  0  0  0
  -10.3798   -4.5015   -3.6536 H   0  0  0  0  0  0  0  0  0  0  0  0
   -9.0970   -5.6112   -4.2331 H   0  0  0  0  0  0  0  0  0  0  0  0
   -3.4910    8.0787    1.1748 H   0  0  0  0  0  0  0  0  0  0  0  0
   -4.9785    7.7059    2.1008 H   0  0  0  0  0  0  0  0  0  0  0  0
   -5.1002    8.1393    0.3850 H   0  0  0  0  0  0  0  0  0  0  0  0
   -2.6661    7.7342   -1.7391 H   0  0  0  0  0  0  0  0  0  0  0  0
   -1.3079    7.8879   -2.8982 H   0  0  0  0  0  0  0  0  0  0  0  0
   -1.2390    8.7467   -1.3470 H   0  0  0  0  0  0  0  0  0  0  0  0
   -1.0028   -6.9388    2.9377 H   0  0  0  0  0  0  0  0  0  0  0  0
   -0.5428   -5.7146    4.1667 H   0  0  0  0  0  0  0  0  0  0  0  0
    0.4724   -5.9393    2.7220 H   0  0  0  0  0  0  0  0  0  0  0  0
   -0.8929   -5.8630    0.0810 H   0  0  0  0  0  0  0  0  0  0  0  0
    0.3216   -5.9167   -1.2171 H   0  0  0  0  0  0  0  0  0  0  0  0
   -1.3326   -5.3157   -1.5662 H   0  0  0  0  0  0  0  0  0  0  0  0
    9.7171    0.1428    4.3089 H   0  0  0  0  0  0  0  0  0  0  0  0
    9.6212    1.9193    4.5235 H   0  0  0  0  0  0  0  0  0  0  0  0
   10.2020    1.2504    2.9864 H   0  0  0  0  0  0  0  0  0  0  0  0
   -8.5961   -0.1141   -2.2264 H   0  0  0  0  0  0  0  0  0  0  0  0
   -6.3581   -3.7682   -2.1444 H   0  0  0  0  0  0  0  0  0  0  0  0
   -7.1655    3.6109   -0.0244 H   0  0  0  0  0  0  0  0  0  0  0  0
   -3.0005   -4.2866    0.7091 H   0  0  0  0  0  0  0  0  0  0  0  0
   -2.9838    4.3794    0.2662 H   0  0  0  0  0  0  0  0  0  0  0  0
   -0.9701   -1.0892    2.6934 H   0  0  0  0  0  0  0  0  0  0  0  0
   -1.1368    4.6464   -0.0839 H   0  0  0  0  0  0  0  0  0  0  0  0
   -0.5421   -1.6745   -0.5984 H   0  0  0  0  0  0  0  0  0  0  0  0
    2.7508   -2.7957    1.8883 H   0  0  0  0  0  0  0  0  0  0  0  0
    2.8774    5.8578   -0.8801 H   0  0  0  0  0  0  0  0  0  0  0  0
    6.3327    3.8945    1.3173 H   0  0  0  0  0  0  0  0  0  0  0  0
    6.0458   -0.0464    2.9814 H   0  0  0  0  0  0  0  0  0  0  0  0
  1  2  2  0  0  0  0
  1 96  1  0  0  0  0
  2  3  1  0  0  0  0
  3  4  2  0  0  0  0
  3  7  1  0  0  0  0
  4  5  1  0  0  0  0
  5  6  2  0  0  0  0
  5 99  1  0  0  0  0
  6  1  1  0  0  0  0
  6 24  1  0  0  0  0
  7  8  1  0  0  0  0
  7 11  2  0  0  0  0
  8  9  1  0  0  0  0
  9 10  2  0  0  0  0
 10  4  1  0  0  0  0
 11 12  1  0  0  0  0
 11 18  1  0  0  0  0
 12 13  2  0  0  0  0
 13 14  1  0  0  0  0
 14  8  1  0  0  0  0
 14 15  2  0  0  0  0
 15 16  1  0  0  0  0
 15101  1  0  0  0  0
 16 17  2  0  0  0  0
 16 26  1  0  0  0  0
 17  9  1  0  0  0  0
 17100  1  0  0  0  0
 18 19  2  0  0  0  0
 19 20  1  0  0  0  0
 19 97  1  0  0  0  0
 20 21  2  0  0  0  0
 20 25  1  0  0  0  0
 21 12  1  0  0  0  0
 21 98  1  0  0  0  0
 22  2  1  0  0  0  0
 23 18  1  0  0  0  0
 24 69  2  0  0  0  0
 24 70  1  0  0  0  0
 25 57  1  0  0  0  0
 25 59  2  0  0  0  0
 26 54  2  0  0  0  0
 26 55  1  0  0  0  0
 27 28  2  0  0  0  0
 27 95  1  0  0  0  0
 28 29  1  0  0  0  0
 28 48  1  0  0  0  0
 29 30  2  0  0  0  0
 29 33  1  0  0  0  0
 30 31  1  0  0  0  0
 31 32  2  0  0  0  0
 31 93  1  0  0  0  0
 32 27  1  0  0  0  0
 32 50  1  0  0  0  0
 33 37  2  0  0  0  0
 34 33  1  0  0  0  0
 34 35  1  0  0  0  0
 35 36  2  0  0  0  0
 36 30  1  0  0  0  0
 37 38  1  0  0  0  0
 37 44  1  0  0  0  0
 38 39  2  0  0  0  0
 39 40  1  0  0  0  0
 40 34  1  0  0  0  0
 40 41  2  0  0  0  0
 41 42  1  0  0  0  0
 41 90  1  0  0  0  0
 42 43  2  0  0  0  0
 42 52  1  0  0  0  0
 43 35  1  0  0  0  0
 43 91  1  0  0  0  0
 44 45  2  0  0  0  0
 44 49  1  0  0  0  0
 45 46  1  0  0  0  0
 45 94  1  0  0  0  0
 46 47  2  0  0  0  0
 46 51  1  0  0  0  0
 47 38  1  0  0  0  0
 47 92  1  0  0  0  0
 50 60  2  0  0  0  0
 50 61  1  0  0  0  0
 51 66  2  0  0  0  0
 51 67  1  0  0  0  0
 52 63  2  0  0  0  0
 52 64  1  0  0  0  0
 53 49  1  0  0  0  0
 53 22  1  0  0  0  0
 53 48  1  0  0  0  0
 53 23  1  0  0  0  0
 55 56  1  0  0  0  0
 56 87  1  0  0  0  0
 56 88  1  0  0  0  0
 56 89  1  0  0  0  0
 57 58  1  0  0  0  0
 58 84  1  0  0  0  0
 58 85  1  0  0  0  0
 58 86  1  0  0  0  0
 61 62  1  0  0  0  0
 62 81  1  0  0  0  0
 62 82  1  0  0  0  0
 62 83  1  0  0  0  0
 64 65  1  0  0  0  0
 65 72  1  0  0  0  0
 65 73  1  0  0  0  0
 65 74  1  0  0  0  0
 67 68  1  0  0  0  0
 68 75  1  0  0  0  0
 68 76  1  0  0  0  0
 68 77  1  0  0  0  0
 70 71  1  0  0  0  0
 71 78  1  0  0  0  0
 71 79  1  0  0  0  0
 71 80  1  0  0  0  0
M  CHG  1   1  -1
M  END
