 energy: -401.228041769210 gnorm: 0.000439549169 xtb: 6.7.1 (edcfbbe)
          03172516053D

202224  0     0  0            999 V2000
   -0.5240    4.6452   -0.4620 C   0  0  0  0  0  0  0  0  0  0  0  0
   -0.3103    3.4648    0.2423 C   0  0  0  0  0  0  0  0  0  0  0  0
    1.0161    3.0997    0.5977 C   0  0  0  0  0  0  0  0  0  0  0  0
    2.0019    4.1570    0.5319 C   0  0  0  0  0  0  0  0  0  0  0  0
    1.7520    5.3336   -0.2116 C   0  0  0  0  0  0  0  0  0  0  0  0
    0.5055    5.5499   -0.7447 C   0  0  0  0  0  0  0  0  0  0  0  0
    1.4931    1.8222    1.0607 C   0  0  0  0  0  0  0  0  0  0  0  0
    2.6783    1.8711    1.8315 C   0  0  0  0  0  0  0  0  0  0  0  0
    3.4334    3.0746    1.9492 C   0  0  0  0  0  0  0  0  0  0  0  0
    3.1485    4.1326    1.1977 N   0  0  0  0  0  0  0  0  0  0  0  0
    1.0348    0.5064    0.6970 C   0  0  0  0  0  0  0  0  0  0  0  0
    1.7422   -0.6115    1.2734 C   0  0  0  0  0  0  0  0  0  0  0  0
    2.7014   -0.5024    2.1887 N   0  0  0  0  0  0  0  0  0  0  0  0
    3.1952    0.7007    2.4553 C   0  0  0  0  0  0  0  0  0  0  0  0
    4.2958    0.7904    3.3307 C   0  0  0  0  0  0  0  0  0  0  0  0
    4.9669    1.9936    3.4957 C   0  0  0  0  0  0  0  0  0  0  0  0
    4.5657    3.1186    2.7857 C   0  0  0  0  0  0  0  0  0  0  0  0
    0.0725    0.1824   -0.3028 C   0  0  0  0  0  0  0  0  0  0  0  0
   -0.0406   -1.1298   -0.7671 C   0  0  0  0  0  0  0  0  0  0  0  0
    0.6762   -2.1945   -0.2075 C   0  0  0  0  0  0  0  0  0  0  0  0
    1.5146   -1.9405    0.8466 C   0  0  0  0  0  0  0  0  0  0  0  0
   -1.3774    2.7670    0.6335 O   0  0  0  0  0  0  0  0  0  0  0  0
   -0.7296    1.0640   -0.8988 O   0  0  0  0  0  0  0  0  0  0  0  0
    0.2556    6.7771   -1.5476 C   0  0  0  0  0  0  0  0  0  0  0  0
    0.4810   -3.5920   -0.6687 C   0  0  0  0  0  0  0  0  0  0  0  0
    6.1669    2.0960    4.3752 C   0  0  0  0  0  0  0  0  0  0  0  0
   -2.0794   -1.4711    1.0198 C   0  0  0  0  0  0  0  0  0  0  0  0
   -2.8533   -0.4857    0.4077 C   0  0  0  0  0  0  0  0  0  0  0  0
   -3.9350   -0.8567   -0.4397 C   0  0  0  0  0  0  0  0  0  0  0  0
   -4.0764   -2.2664   -0.7122 C   0  0  0  0  0  0  0  0  0  0  0  0
   -3.2109   -3.2240   -0.1374 C   0  0  0  0  0  0  0  0  0  0  0  0
   -2.2649   -2.8349    0.7754 C   0  0  0  0  0  0  0  0  0  0  0  0
   -4.9914    0.0049   -0.8999 C   0  0  0  0  0  0  0  0  0  0  0  0
   -6.1305   -0.6430   -1.4284 C   0  0  0  0  0  0  0  0  0  0  0  0
   -6.0872   -2.0233   -1.7748 C   0  0  0  0  0  0  0  0  0  0  0  0
   -5.0555   -2.7908   -1.4472 N   0  0  0  0  0  0  0  0  0  0  0  0
   -5.1051    1.4338   -0.7733 C   0  0  0  0  0  0  0  0  0  0  0  0
   -6.4476    1.9681   -0.7329 C   0  0  0  0  0  0  0  0  0  0  0  0
   -7.5152    1.2960   -1.1400 N   0  0  0  0  0  0  0  0  0  0  0  0
   -7.3593    0.0593   -1.6039 C   0  0  0  0  0  0  0  0  0  0  0  0
   -8.4544   -0.5863   -2.2045 C   0  0  0  0  0  0  0  0  0  0  0  0
   -8.3502   -1.9013   -2.6439 C   0  0  0  0  0  0  0  0  0  0  0  0
   -7.1826   -2.6170   -2.4382 C   0  0  0  0  0  0  0  0  0  0  0  0
   -4.0483    2.3787   -0.7725 C   0  0  0  0  0  0  0  0  0  0  0  0
   -4.3099    3.6970   -0.4070 C   0  0  0  0  0  0  0  0  0  0  0  0
   -5.6075    4.1586   -0.1645 C   0  0  0  0  0  0  0  0  0  0  0  0
   -6.6716    3.3114   -0.3574 C   0  0  0  0  0  0  0  0  0  0  0  0
   -2.5726    0.7655    0.7514 O   0  0  0  0  0  0  0  0  0  0  0  0
   -2.8243    2.0508   -1.1964 O   0  0  0  0  0  0  0  0  0  0  0  0
   -1.4360   -3.8004    1.5413 C   0  0  0  0  0  0  0  0  0  0  0  0
   -5.8875    5.5821    0.1759 C   0  0  0  0  0  0  0  0  0  0  0  0
   -9.5424   -2.5197   -3.2890 C   0  0  0  0  0  0  0  0  0  0  0  0
   -1.8536    1.6653   -0.1711 B   0  0  0  0  0  0  0  0  0  0  0  0
    6.8941    3.0526    4.4186 O   0  0  0  0  0  0  0  0  0  0  0  0
    6.3414    0.9898    5.1114 O   0  0  0  0  0  0  0  0  0  0  0  0
    7.5023    0.9475    5.9310 C   0  0  0  0  0  0  0  0  0  0  0  0
   -0.4246   -3.6856   -1.6442 O   0  0  0  0  0  0  0  0  0  0  0  0
   -0.7147   -4.9966   -2.1087 C   0  0  0  0  0  0  0  0  0  0  0  0
    1.0585   -4.5498   -0.2091 O   0  0  0  0  0  0  0  0  0  0  0  0
   -0.6272   -3.4705    2.3754 O   0  0  0  0  0  0  0  0  0  0  0  0
   -1.7097   -5.0633    1.2213 O   0  0  0  0  0  0  0  0  0  0  0  0
   -0.9780   -6.0747    1.9035 C   0  0  0  0  0  0  0  0  0  0  0  0
  -10.4856   -1.9020   -3.7062 O   0  0  0  0  0  0  0  0  0  0  0  0
   -9.4476   -3.8563   -3.3507 O   0  0  0  0  0  0  0  0  0  0  0  0
  -10.5542   -4.5230   -3.9444 C   0  0  0  0  0  0  0  0  0  0  0  0
   -6.9936    6.0537    0.2157 O   0  0  0  0  0  0  0  0  0  0  0  0
   -4.7731    6.2940    0.3875 O   0  0  0  0  0  0  0  0  0  0  0  0
   -4.9925    7.6588    0.7183 C   0  0  0  0  0  0  0  0  0  0  0  0
    1.1173    7.5156   -1.9502 O   0  0  0  0  0  0  0  0  0  0  0  0
   -1.0513    6.9823   -1.7691 O   0  0  0  0  0  0  0  0  0  0  0  0
   -1.3752    8.1293   -2.5410 C   0  0  0  0  0  0  0  0  0  0  0  0
  -10.7093   -4.1638   -4.9634 H   0  0  0  0  0  0  0  0  0  0  0  0
  -11.4609   -4.3371   -3.3656 H   0  0  0  0  0  0  0  0  0  0  0  0
  -10.3089   -5.5818   -3.9437 H   0  0  0  0  0  0  0  0  0  0  0  0
   -4.0102    8.1203    0.7904 H   0  0  0  0  0  0  0  0  0  0  0  0
   -5.5317    7.7225    1.6658 H   0  0  0  0  0  0  0  0  0  0  0  0
   -5.5883    8.1441   -0.0577 H   0  0  0  0  0  0  0  0  0  0  0  0
   -2.4578    8.1352   -2.6373 H   0  0  0  0  0  0  0  0  0  0  0  0
   -0.9027    8.0715   -3.5234 H   0  0  0  0  0  0  0  0  0  0  0  0
   -1.0271    9.0348   -2.0392 H   0  0  0  0  0  0  0  0  0  0  0  0
   -1.6073   -6.9621    1.9088 H   0  0  0  0  0  0  0  0  0  0  0  0
   -0.7503   -5.7511    2.9202 H   0  0  0  0  0  0  0  0  0  0  0  0
   -0.0475   -6.2675    1.3656 H   0  0  0  0  0  0  0  0  0  0  0  0
   -1.1678   -5.5845   -1.3079 H   0  0  0  0  0  0  0  0  0  0  0  0
    0.1994   -5.4926   -2.4418 H   0  0  0  0  0  0  0  0  0  0  0  0
   -1.4108   -4.8765   -2.9344 H   0  0  0  0  0  0  0  0  0  0  0  0
    7.2956    0.2311    6.7224 H   0  0  0  0  0  0  0  0  0  0  0  0
    7.7105    1.9361    6.3443 H   0  0  0  0  0  0  0  0  0  0  0  0
    8.3584    0.6211    5.3370 H   0  0  0  0  0  0  0  0  0  0  0  0
   -9.3834   -0.0497   -2.3157 H   0  0  0  0  0  0  0  0  0  0  0  0
   -7.0900   -3.6456   -2.7483 H   0  0  0  0  0  0  0  0  0  0  0  0
   -7.6869    3.6662   -0.2844 H   0  0  0  0  0  0  0  0  0  0  0  0
   -3.3895   -4.2593   -0.3727 H   0  0  0  0  0  0  0  0  0  0  0  0
   -3.4786    4.3773   -0.3314 H   0  0  0  0  0  0  0  0  0  0  0  0
   -1.3378   -1.1492    1.7362 H   0  0  0  0  0  0  0  0  0  0  0  0
   -1.5234    4.8571   -0.8047 H   0  0  0  0  0  0  0  0  0  0  0  0
   -0.7228   -1.3053   -1.5846 H   0  0  0  0  0  0  0  0  0  0  0  0
    2.0522   -2.7274    1.3485 H   0  0  0  0  0  0  0  0  0  0  0  0
    2.5409    6.0632   -0.3001 H   0  0  0  0  0  0  0  0  0  0  0  0
    5.1315    4.0345    2.8563 H   0  0  0  0  0  0  0  0  0  0  0  0
    4.6283   -0.1076    3.8263 H   0  0  0  0  0  0  0  0  0  0  0  0
    0.5312    4.2389    3.7760 C   0  0  0  0  0  0  0  0  0  0  0  0
    0.7831    3.1776    4.6393 C   0  0  0  0  0  0  0  0  0  0  0  0
    2.0966    2.9896    5.1419 C   0  0  0  0  0  0  0  0  0  0  0  0
    2.9737    4.1371    5.0594 C   0  0  0  0  0  0  0  0  0  0  0  0
    2.6570    5.2350    4.2266 C   0  0  0  0  0  0  0  0  0  0  0  0
    1.4604    5.2607    3.5554 C   0  0  0  0  0  0  0  0  0  0  0  0
    2.6032    1.8168    5.8055 C   0  0  0  0  0  0  0  0  0  0  0  0
    3.7027    2.0644    6.6629 C   0  0  0  0  0  0  0  0  0  0  0  0
    4.3479    3.3367    6.6965 C   0  0  0  0  0  0  0  0  0  0  0  0
    4.0441    4.2919    5.8257 N   0  0  0  0  0  0  0  0  0  0  0  0
    2.2392    0.4299    5.6139 C   0  0  0  0  0  0  0  0  0  0  0  0
    2.9685   -0.5340    6.4140 C   0  0  0  0  0  0  0  0  0  0  0  0
    3.8213   -0.2200    7.3767 N   0  0  0  0  0  0  0  0  0  0  0  0
    4.2189    1.0405    7.5049 C   0  0  0  0  0  0  0  0  0  0  0  0
    5.2217    1.3290    8.4509 C   0  0  0  0  0  0  0  0  0  0  0  0
    5.7949    2.5915    8.5031 C   0  0  0  0  0  0  0  0  0  0  0  0
    5.3840    3.5790    7.6176 C   0  0  0  0  0  0  0  0  0  0  0  0
    1.3635   -0.1324    4.6374 C   0  0  0  0  0  0  0  0  0  0  0  0
    1.4354   -1.5003    4.3354 C   0  0  0  0  0  0  0  0  0  0  0  0
    2.2337   -2.3911    5.0609 C   0  0  0  0  0  0  0  0  0  0  0  0
    2.9068   -1.9272    6.1570 C   0  0  0  0  0  0  0  0  0  0  0  0
   -0.2282    2.4355    5.0887 O   0  0  0  0  0  0  0  0  0  0  0  0
    0.5263    0.5526    3.8622 O   0  0  0  0  0  0  0  0  0  0  0  0
    1.1103    6.4503    2.7322 C   0  0  0  0  0  0  0  0  0  0  0  0
    2.3961   -3.8137    4.6491 C   0  0  0  0  0  0  0  0  0  0  0  0
    6.8874    2.9169    9.4653 C   0  0  0  0  0  0  0  0  0  0  0  0
   -1.0695   -1.6949    5.7982 C   0  0  0  0  0  0  0  0  0  0  0  0
   -1.7961   -0.7709    5.0483 C   0  0  0  0  0  0  0  0  0  0  0  0
   -2.7993   -1.2175    4.1372 C   0  0  0  0  0  0  0  0  0  0  0  0
   -2.9578   -2.6541    4.0445 C   0  0  0  0  0  0  0  0  0  0  0  0
   -2.1406   -3.5523    4.7737 C   0  0  0  0  0  0  0  0  0  0  0  0
   -1.2133   -3.0778    5.6605 C   0  0  0  0  0  0  0  0  0  0  0  0
   -3.7432   -0.4174    3.3896 C   0  0  0  0  0  0  0  0  0  0  0  0
   -4.8155   -1.1173    2.7831 C   0  0  0  0  0  0  0  0  0  0  0  0
   -4.8125   -2.5374    2.7021 C   0  0  0  0  0  0  0  0  0  0  0  0
   -3.8758   -3.2636    3.3021 N   0  0  0  0  0  0  0  0  0  0  0  0
   -3.7976    1.0120    3.2336 C   0  0  0  0  0  0  0  0  0  0  0  0
   -5.0759    1.5914    2.8787 C   0  0  0  0  0  0  0  0  0  0  0  0
   -6.0803    0.8900    2.3788 N   0  0  0  0  0  0  0  0  0  0  0  0
   -5.9308   -0.4241    2.2275 C   0  0  0  0  0  0  0  0  0  0  0  0
   -6.9428   -1.1327    1.5591 C   0  0  0  0  0  0  0  0  0  0  0  0
   -6.8648   -2.5128    1.4069 C   0  0  0  0  0  0  0  0  0  0  0  0
   -5.8143   -3.2136    1.9754 C   0  0  0  0  0  0  0  0  0  0  0  0
   -2.7086    1.9200    3.3058 C   0  0  0  0  0  0  0  0  0  0  0  0
   -2.9773    3.2782    3.4457 C   0  0  0  0  0  0  0  0  0  0  0  0
   -4.2642    3.8123    3.3310 C   0  0  0  0  0  0  0  0  0  0  0  0
   -5.3023    2.9851    2.9853 C   0  0  0  0  0  0  0  0  0  0  0  0
   -1.5070    0.5072    5.3051 O   0  0  0  0  0  0  0  0  0  0  0  0
   -1.4553    1.5079    3.1841 O   0  0  0  0  0  0  0  0  0  0  0  0
   -0.3525   -3.9571    6.4997 C   0  0  0  0  0  0  0  0  0  0  0  0
   -4.5016    5.2669    3.5293 C   0  0  0  0  0  0  0  0  0  0  0  0
   -7.9434   -3.1936    0.6379 C   0  0  0  0  0  0  0  0  0  0  0  0
   -0.6625    1.2603    4.3681 B   0  0  0  0  0  0  0  0  0  0  0  0
    7.3400    4.0210    9.6236 O   0  0  0  0  0  0  0  0  0  0  0  0
    7.3173    1.8363   10.1257 O   0  0  0  0  0  0  0  0  0  0  0  0
    8.3618    2.0589   11.0634 C   0  0  0  0  0  0  0  0  0  0  0  0
    2.2166   -3.9657    3.3430 O   0  0  0  0  0  0  0  0  0  0  0  0
    2.4337   -5.2663    2.8131 C   0  0  0  0  0  0  0  0  0  0  0  0
    2.7163   -4.7083    5.3943 O   0  0  0  0  0  0  0  0  0  0  0  0
    0.3423   -3.5498    7.3963 O   0  0  0  0  0  0  0  0  0  0  0  0
   -0.4428   -5.2413    6.1504 O   0  0  0  0  0  0  0  0  0  0  0  0
    0.3682   -6.1427    6.8993 C   0  0  0  0  0  0  0  0  0  0  0  0
   -8.8948   -2.6206    0.1659 O   0  0  0  0  0  0  0  0  0  0  0  0
   -7.7383   -4.5051    0.5202 O   0  0  0  0  0  0  0  0  0  0  0  0
   -8.7296   -5.2285   -0.1990 C   0  0  0  0  0  0  0  0  0  0  0  0
   -5.5431    5.8287    3.2977 O   0  0  0  0  0  0  0  0  0  0  0  0
   -3.4262    5.8845    4.0294 O   0  0  0  0  0  0  0  0  0  0  0  0
   -3.5607    7.2669    4.3178 C   0  0  0  0  0  0  0  0  0  0  0  0
    1.8626    7.3598    2.4989 O   0  0  0  0  0  0  0  0  0  0  0  0
   -0.1639    6.4146    2.3159 O   0  0  0  0  0  0  0  0  0  0  0  0
   -0.6313    7.5483    1.6018 C   0  0  0  0  0  0  0  0  0  0  0  0
   -8.8336   -4.8296   -1.2097 H   0  0  0  0  0  0  0  0  0  0  0  0
   -9.6928   -5.1537    0.3100 H   0  0  0  0  0  0  0  0  0  0  0  0
   -8.3900   -6.2606   -0.2235 H   0  0  0  0  0  0  0  0  0  0  0  0
   -2.7265    7.5255    4.9657 H   0  0  0  0  0  0  0  0  0  0  0  0
   -4.5118    7.4595    4.8188 H   0  0  0  0  0  0  0  0  0  0  0  0
   -3.5212    7.8519    3.3969 H   0  0  0  0  0  0  0  0  0  0  0  0
   -1.4838    7.2136    1.0151 H   0  0  0  0  0  0  0  0  0  0  0  0
    0.1568    7.9416    0.9563 H   0  0  0  0  0  0  0  0  0  0  0  0
   -0.9317    8.3282    2.3062 H   0  0  0  0  0  0  0  0  0  0  0  0
    0.0889   -7.1419    6.5752 H   0  0  0  0  0  0  0  0  0  0  0  0
    0.1834   -6.0157    7.9673 H   0  0  0  0  0  0  0  0  0  0  0  0
    1.4224   -5.9450    6.6946 H   0  0  0  0  0  0  0  0  0  0  0  0
    1.8638   -6.0070    3.3772 H   0  0  0  0  0  0  0  0  0  0  0  0
    3.4947   -5.5205    2.8727 H   0  0  0  0  0  0  0  0  0  0  0  0
    2.1076   -5.2261    1.7763 H   0  0  0  0  0  0  0  0  0  0  0  0
    8.6142    1.0847   11.4735 H   0  0  0  0  0  0  0  0  0  0  0  0
    8.0246    2.7329   11.8531 H   0  0  0  0  0  0  0  0  0  0  0  0
    9.2265    2.5050   10.5680 H   0  0  0  0  0  0  0  0  0  0  0  0
   -7.7905   -0.5895    1.1701 H   0  0  0  0  0  0  0  0  0  0  0  0
   -5.7452   -4.2853    1.8886 H   0  0  0  0  0  0  0  0  0  0  0  0
   -6.2894    3.3649    2.7767 H   0  0  0  0  0  0  0  0  0  0  0  0
   -2.3221   -4.6058    4.6402 H   0  0  0  0  0  0  0  0  0  0  0  0
   -2.1589    3.9445    3.6478 H   0  0  0  0  0  0  0  0  0  0  0  0
   -0.3723   -1.3133    6.5291 H   0  0  0  0  0  0  0  0  0  0  0  0
   -0.4267    4.2957    3.2904 H   0  0  0  0  0  0  0  0  0  0  0  0
    0.8099   -1.8770    3.5413 H   0  0  0  0  0  0  0  0  0  0  0  0
    3.4789   -2.5836    6.7923 H   0  0  0  0  0  0  0  0  0  0  0  0
    3.3488    6.0595    4.1745 H   0  0  0  0  0  0  0  0  0  0  0  0
    5.8618    4.5463    7.6171 H   0  0  0  0  0  0  0  0  0  0  0  0
    5.5470    0.5382    9.1071 H   0  0  0  0  0  0  0  0  0  0  0  0
  1  2  2  0  0  0  0
  1 96  1  0  0  0  0
  2  3  1  0  0  0  0
  3  4  2  0  0  0  0
  3  7  1  0  0  0  0
  4  5  1  0  0  0  0
  5  6  2  0  0  0  0
  5 99  1  0  0  0  0
  6  1  1  0  0  0  0
  6 24  1  0  0  0  0
  7  8  1  0  0  0  0
  7 11  2  0  0  0  0
  8  9  1  0  0  0  0
  9 10  2  0  0  0  0
 10  4  1  0  0  0  0
 11 12  1  0  0  0  0
 11 18  1  0  0  0  0
 12 13  2  0  0  0  0
 13 14  1  0  0  0  0
 14  8  1  0  0  0  0
 14 15  2  0  0  0  0
 15 16  1  0  0  0  0
 15101  1  0  0  0  0
 16 17  2  0  0  0  0
 16 26  1  0  0  0  0
 17  9  1  0  0  0  0
 17100  1  0  0  0  0
 18 19  2  0  0  0  0
 19 20  1  0  0  0  0
 19 97  1  0  0  0  0
 20 21  2  0  0  0  0
 20 25  1  0  0  0  0
 21 12  1  0  0  0  0
 21 98  1  0  0  0  0
 22  2  1  0  0  0  0
 23 18  1  0  0  0  0
 24 69  2  0  0  0  0
 24 70  1  0  0  0  0
 25 57  1  0  0  0  0
 25 59  2  0  0  0  0
 26 54  2  0  0  0  0
 26 55  1  0  0  0  0
 27 28  2  0  0  0  0
 27 95  1  0  0  0  0
 28 29  1  0  0  0  0
 28 48  1  0  0  0  0
 29 30  2  0  0  0  0
 29 33  1  0  0  0  0
 30 31  1  0  0  0  0
 31 32  2  0  0  0  0
 31 93  1  0  0  0  0
 32 27  1  0  0  0  0
 32 50  1  0  0  0  0
 33 37  2  0  0  0  0
 34 33  1  0  0  0  0
 34 35  1  0  0  0  0
 35 36  2  0  0  0  0
 36 30  1  0  0  0  0
 37 38  1  0  0  0  0
 37 44  1  0  0  0  0
 38 39  2  0  0  0  0
 39 40  1  0  0  0  0
 40 34  1  0  0  0  0
 40 41  2  0  0  0  0
 41 42  1  0  0  0  0
 41 90  1  0  0  0  0
 42 43  2  0  0  0  0
 42 52  1  0  0  0  0
 43 35  1  0  0  0  0
 43 91  1  0  0  0  0
 44 45  2  0  0  0  0
 44 49  1  0  0  0  0
 45 46  1  0  0  0  0
 45 94  1  0  0  0  0
 46 47  2  0  0  0  0
 46 51  1  0  0  0  0
 47 38  1  0  0  0  0
 47 92  1  0  0  0  0
 50 60  2  0  0  0  0
 50 61  1  0  0  0  0
 51 66  2  0  0  0  0
 51 67  1  0  0  0  0
 52 63  2  0  0  0  0
 52 64  1  0  0  0  0
 53 49  1  0  0  0  0
 53 22  1  0  0  0  0
 53 48  1  0  0  0  0
 53 23  1  0  0  0  0
 55 56  1  0  0  0  0
 56 87  1  0  0  0  0
 56 88  1  0  0  0  0
 56 89  1  0  0  0  0
 57 58  1  0  0  0  0
 58 84  1  0  0  0  0
 58 85  1  0  0  0  0
 58 86  1  0  0  0  0
 61 62  1  0  0  0  0
 62 81  1  0  0  0  0
 62 82  1  0  0  0  0
 62 83  1  0  0  0  0
 64 65  1  0  0  0  0
 65 72  1  0  0  0  0
 65 73  1  0  0  0  0
 65 74  1  0  0  0  0
 67 68  1  0  0  0  0
 68 75  1  0  0  0  0
 68 76  1  0  0  0  0
 68 77  1  0  0  0  0
 70 71  1  0  0  0  0
 71 78  1  0  0  0  0
 71 79  1  0  0  0  0
 71 80  1  0  0  0  0
102103  2  0  0  0  0
102197  1  0  0  0  0
103104  1  0  0  0  0
104105  2  0  0  0  0
104108  1  0  0  0  0
105106  1  0  0  0  0
106107  2  0  0  0  0
106200  1  0  0  0  0
107102  1  0  0  0  0
107125  1  0  0  0  0
108109  1  0  0  0  0
108112  2  0  0  0  0
109110  1  0  0  0  0
110111  2  0  0  0  0
111105  1  0  0  0  0
112113  1  0  0  0  0
112119  1  0  0  0  0
113114  2  0  0  0  0
114115  1  0  0  0  0
115109  1  0  0  0  0
115116  2  0  0  0  0
116117  1  0  0  0  0
116202  1  0  0  0  0
117118  2  0  0  0  0
117127  1  0  0  0  0
118110  1  0  0  0  0
118201  1  0  0  0  0
119120  2  0  0  0  0
120121  1  0  0  0  0
120198  1  0  0  0  0
121122  2  0  0  0  0
121126  1  0  0  0  0
122113  1  0  0  0  0
122199  1  0  0  0  0
123103  1  0  0  0  0
124119  1  0  0  0  0
125170  2  0  0  0  0
125171  1  0  0  0  0
126158  1  0  0  0  0
126160  2  0  0  0  0
127155  2  0  0  0  0
127156  1  0  0  0  0
128129  2  0  0  0  0
128196  1  0  0  0  0
129130  1  0  0  0  0
129149  1  0  0  0  0
130131  2  0  0  0  0
130134  1  0  0  0  0
131132  1  0  0  0  0
132133  2  0  0  0  0
132194  1  0  0  0  0
133128  1  0  0  0  0
133151  1  0  0  0  0
134138  2  0  0  0  0
135134  1  0  0  0  0
135136  1  0  0  0  0
136137  2  0  0  0  0
137131  1  0  0  0  0
138139  1  0  0  0  0
138145  1  0  0  0  0
139140  2  0  0  0  0
140141  1  0  0  0  0
141135  1  0  0  0  0
141142  2  0  0  0  0
142143  1  0  0  0  0
142191  1  0  0  0  0
143144  2  0  0  0  0
143153  1  0  0  0  0
144136  1  0  0  0  0
144192  1  0  0  0  0
145146  2  0  0  0  0
145150  1  0  0  0  0
146147  1  0  0  0  0
146195  1  0  0  0  0
147148  2  0  0  0  0
147152  1  0  0  0  0
148139  1  0  0  0  0
148193  1  0  0  0  0
151161  2  0  0  0  0
151162  1  0  0  0  0
152167  2  0  0  0  0
152168  1  0  0  0  0
153164  2  0  0  0  0
153165  1  0  0  0  0
154150  1  0  0  0  0
154123  1  0  0  0  0
154149  1  0  0  0  0
154124  1  0  0  0  0
156157  1  0  0  0  0
157188  1  0  0  0  0
157189  1  0  0  0  0
157190  1  0  0  0  0
158159  1  0  0  0  0
159185  1  0  0  0  0
159186  1  0  0  0  0
159187  1  0  0  0  0
162163  1  0  0  0  0
163182  1  0  0  0  0
163183  1  0  0  0  0
163184  1  0  0  0  0
165166  1  0  0  0  0
166173  1  0  0  0  0
166174  1  0  0  0  0
166175  1  0  0  0  0
168169  1  0  0  0  0
169176  1  0  0  0  0
169177  1  0  0  0  0
169178  1  0  0  0  0
171172  1  0  0  0  0
172179  1  0  0  0  0
172180  1  0  0  0  0
172181  1  0  0  0  0
M  CHG  1   8   1
M  CHG  1  53  -1
M  CHG  1 109   1
M  CHG  1 154  -1
M  END
