 energy: -301.666050019127 gnorm: 0.000471288266 xtb: 6.6.1 (8d0f1dd)
          11142413453D

192210  0     0  0            999 V2000
    3.4499    0.5489   -2.0110 C   0  0  0  0  0  0  0  0  0  0  0  0
    3.7383    1.7466   -1.4753 C   0  0  0  0  0  0  0  0  0  0  0  0
    2.6772    2.4550   -0.7895 C   0  0  0  0  0  0  0  0  0  0  0  0
    1.3760    2.3086   -1.3688 C   0  0  0  0  0  0  0  0  0  0  0  0
    1.0648    1.0162   -1.6893 C   0  0  0  0  0  0  0  0  0  0  0  0
    2.1259    0.0236   -1.7168 C   0  0  0  0  0  0  0  0  0  0  0  0
   -0.3026    0.5453   -1.5935 C   0  0  0  0  0  0  0  0  0  0  0  0
   -0.5143   -0.6437   -0.8841 C   0  0  0  0  0  0  0  0  0  0  0  0
   -1.4122    1.3230   -1.9649 C   0  0  0  0  0  0  0  0  0  0  0  0
   -2.6836    0.9944   -1.4260 C   0  0  0  0  0  0  0  0  0  0  0  0
   -2.8824   -0.1705   -0.6971 C   0  0  0  0  0  0  0  0  0  0  0  0
   -1.8012   -0.9993   -0.4791 C   0  0  0  0  0  0  0  0  0  0  0  0
   -1.5844    2.5403   -2.7076 C   0  0  0  0  0  0  0  0  0  0  0  0
   -2.9112    2.9548   -2.4511 C   0  0  0  0  0  0  0  0  0  0  0  0
   -0.7696    3.3275   -3.5602 C   0  0  0  0  0  0  0  0  0  0  0  0
   -1.2190    4.6384   -3.8443 C   0  0  0  0  0  0  0  0  0  0  0  0
   -2.5199    5.0515   -3.4763 C   0  0  0  0  0  0  0  0  0  0  0  0
   -3.3902    4.2071   -2.8458 C   0  0  0  0  0  0  0  0  0  0  0  0
    0.4361    2.8740   -4.1972 C   0  0  0  0  0  0  0  0  0  0  0  0
    1.2913    3.8169   -4.8219 C   0  0  0  0  0  0  0  0  0  0  0  0
    0.8864    5.1727   -4.9181 C   0  0  0  0  0  0  0  0  0  0  0  0
   -0.3514    5.5475   -4.5082 C   0  0  0  0  0  0  0  0  0  0  0  0
    1.9239    1.1013   -4.9244 C   0  0  0  0  0  0  0  0  0  0  0  0
    2.4941    3.3776   -5.4089 C   0  0  0  0  0  0  0  0  0  0  0  0
    2.2352   -0.3180   -5.0086 C   0  0  0  0  0  0  0  0  0  0  0  0
    5.3287    4.4147    0.6968 Br  0  0  0  0  0  0  0  0  0  0  0  0
    1.5028   -1.1651   -4.2994 N   0  0  0  0  0  0  0  0  0  0  0  0
    1.8708   -2.4360   -4.2845 N   0  0  0  0  0  0  0  0  0  0  0  0
    2.9469   -2.9465   -5.0142 C   0  0  0  0  0  0  0  0  0  0  0  0
    3.5513   -1.9793   -5.8381 N   0  0  0  0  0  0  0  0  0  0  0  0
    3.2423   -0.7009   -5.7826 N   0  0  0  0  0  0  0  0  0  0  0  0
    3.3187   -4.0849   -4.9370 O   0  0  0  0  0  0  0  0  0  0  0  0
    0.7506    1.5151   -4.3186 C   0  0  0  0  0  0  0  0  0  0  0  0
    2.8204    2.0516   -5.4472 C   0  0  0  0  0  0  0  0  0  0  0  0
    0.6295   -1.5565   -0.5375 C   0  0  0  0  0  0  0  0  0  0  0  0
    1.8935   -1.2198   -1.2463 C   0  0  0  0  0  0  0  0  0  0  0  0
   -3.5767    1.9836   -1.7436 N   0  0  0  0  0  0  0  0  0  0  0  0
   -7.2106    5.0278    2.5567 Si  0  0  0  0  0  0  0  0  0  0  0  0
   -5.6705    4.2545    1.6991 C   0  0  0  0  0  0  0  0  0  0  0  0
   -5.9965    3.3676    0.5154 C   0  0  0  0  0  0  0  0  0  0  0  0
   -4.7698    2.8780   -0.0071 O   0  0  0  0  0  0  0  0  0  0  0  0
   -6.5591    6.2989    3.8212 C   0  0  0  0  0  0  0  0  0  0  0  0
   -8.1983    3.6553    3.4437 C   0  0  0  0  0  0  0  0  0  0  0  0
   -8.3027    5.8823    1.2552 C   0  0  0  0  0  0  0  0  0  0  0  0
   -4.8885    2.1381   -1.1921 C   0  0  0  0  0  0  0  0  0  0  0  0
    1.0743   -3.2801   -3.4744 C   0  0  0  0  0  0  0  0  0  0  0  0
   -0.2947   -3.0241   -3.4228 C   0  0  0  0  0  0  0  0  0  0  0  0
   -1.1029   -3.7957   -2.6110 C   0  0  0  0  0  0  0  0  0  0  0  0
   -0.5508   -4.8081   -1.8376 C   0  0  0  0  0  0  0  0  0  0  0  0
    0.8137   -5.0542   -1.8877 C   0  0  0  0  0  0  0  0  0  0  0  0
    1.6342   -4.2995   -2.7078 C   0  0  0  0  0  0  0  0  0  0  0  0
    4.5701   -2.3267   -6.7455 C   0  0  0  0  0  0  0  0  0  0  0  0
    4.6389   -3.5907   -7.3337 C   0  0  0  0  0  0  0  0  0  0  0  0
    5.6444   -3.8564   -8.2434 C   0  0  0  0  0  0  0  0  0  0  0  0
    6.5774   -2.8840   -8.5725 C   0  0  0  0  0  0  0  0  0  0  0  0
    6.5014   -1.6250   -7.9906 C   0  0  0  0  0  0  0  0  0  0  0  0
    5.5030   -1.3412   -7.0840 C   0  0  0  0  0  0  0  0  0  0  0  0
    5.4361   -0.3722   -6.6157 H   0  0  0  0  0  0  0  0  0  0  0  0
    7.2272   -0.8675   -8.2411 H   0  0  0  0  0  0  0  0  0  0  0  0
    7.3609   -3.1051   -9.2797 H   0  0  0  0  0  0  0  0  0  0  0  0
    5.6935   -4.8301   -8.7044 H   0  0  0  0  0  0  0  0  0  0  0  0
    3.9126   -4.3512   -7.1020 H   0  0  0  0  0  0  0  0  0  0  0  0
    2.6918   -4.5009   -2.7459 H   0  0  0  0  0  0  0  0  0  0  0  0
    1.2450   -5.8358   -1.2820 H   0  0  0  0  0  0  0  0  0  0  0  0
   -1.1834   -5.4069   -1.2010 H   0  0  0  0  0  0  0  0  0  0  0  0
   -2.1649   -3.6094   -2.5838 H   0  0  0  0  0  0  0  0  0  0  0  0
   -0.7067   -2.2325   -4.0281 H   0  0  0  0  0  0  0  0  0  0  0  0
    3.7370    1.7156   -5.9029 H   0  0  0  0  0  0  0  0  0  0  0  0
    3.1470    4.1112   -5.8566 H   0  0  0  0  0  0  0  0  0  0  0  0
   -5.0066    5.0449    1.3486 H   0  0  0  0  0  0  0  0  0  0  0  0
   -5.2013    2.9770    4.5798 H   0  0  0  0  0  0  0  0  0  0  0  0
   -6.6325    2.5233    0.8162 H   0  0  0  0  0  0  0  0  0  0  0  0
   -6.5274    3.9337   -0.2617 H   0  0  0  0  0  0  0  0  0  0  0  0
   -5.5319    2.6616   -1.9179 H   0  0  0  0  0  0  0  0  0  0  0  0
   -5.3246    1.1448   -1.0008 H   0  0  0  0  0  0  0  0  0  0  0  0
   -8.5804    2.9229    2.7389 H   0  0  0  0  0  0  0  0  0  0  0  0
   -9.0542    4.0743    3.9638 H   0  0  0  0  0  0  0  0  0  0  0  0
   -7.6029    3.1200    4.1787 H   0  0  0  0  0  0  0  0  0  0  0  0
   -5.9269    5.8481    4.5801 H   0  0  0  0  0  0  0  0  0  0  0  0
   -7.3849    6.7800    4.3350 H   0  0  0  0  0  0  0  0  0  0  0  0
   -5.9823    7.0805    3.3358 H   0  0  0  0  0  0  0  0  0  0  0  0
   -8.7583    5.1641    0.5796 H   0  0  0  0  0  0  0  0  0  0  0  0
   -7.7345    6.5866    0.6547 H   0  0  0  0  0  0  0  0  0  0  0  0
   -9.1084    6.4363    1.7264 H   0  0  0  0  0  0  0  0  0  0  0  0
    0.0409    0.7692   -4.0041 H   0  0  0  0  0  0  0  0  0  0  0  0
    1.5547    5.8807   -5.3834 H   0  0  0  0  0  0  0  0  0  0  0  0
   -0.6992    6.5570   -4.6673 H   0  0  0  0  0  0  0  0  0  0  0  0
   -2.8298    6.0521   -3.7357 H   0  0  0  0  0  0  0  0  0  0  0  0
   -4.3985    4.5144   -2.6228 H   0  0  0  0  0  0  0  0  0  0  0  0
   -3.8515   -0.4283   -0.3022 H   0  0  0  0  0  0  0  0  0  0  0  0
   -1.9406   -1.9223    0.0625 H   0  0  0  0  0  0  0  0  0  0  0  0
    0.3185   -2.5787   -0.7828 H   0  0  0  0  0  0  0  0  0  0  0  0
    2.6909   -1.9508   -1.2093 H   0  0  0  0  0  0  0  0  0  0  0  0
    4.1946   -0.0662   -2.4890 H   0  0  0  0  0  0  0  0  0  0  0  0
    4.7258    2.1791   -1.4758 H   0  0  0  0  0  0  0  0  0  0  0  0
    0.6042    3.0379   -1.1896 H   0  0  0  0  0  0  0  0  0  0  0  0
    3.3710   -0.4803    4.6239 C   0  0  0  0  0  0  0  0  0  0  0  0
    3.9260    0.7506    4.3844 C   0  0  0  0  0  0  0  0  0  0  0  0
    3.0956    1.8712    4.4045 C   0  0  0  0  0  0  0  0  0  0  0  0
    1.7420    1.7692    4.6002 C   0  0  0  0  0  0  0  0  0  0  0  0
    1.1452    0.5050    4.7340 C   0  0  0  0  0  0  0  0  0  0  0  0
    1.9878   -0.6318    4.8138 C   0  0  0  0  0  0  0  0  0  0  0  0
   -0.2748    0.3501    4.8797 C   0  0  0  0  0  0  0  0  0  0  0  0
   -0.7504   -0.8692    5.4214 C   0  0  0  0  0  0  0  0  0  0  0  0
   -1.2352    1.3488    4.5735 C   0  0  0  0  0  0  0  0  0  0  0  0
   -2.5154    1.2408    5.1685 C   0  0  0  0  0  0  0  0  0  0  0  0
   -2.9379    0.0846    5.8311 C   0  0  0  0  0  0  0  0  0  0  0  0
   -2.0794   -0.9789    5.8806 C   0  0  0  0  0  0  0  0  0  0  0  0
   -1.2556    2.5762    3.8115 C   0  0  0  0  0  0  0  0  0  0  0  0
   -2.4768    3.2139    4.1484 C   0  0  0  0  0  0  0  0  0  0  0  0
   -0.4528    3.1802    2.8118 C   0  0  0  0  0  0  0  0  0  0  0  0
   -0.7517    4.5219    2.4426 C   0  0  0  0  0  0  0  0  0  0  0  0
   -1.9052    5.1698    2.9433 C   0  0  0  0  0  0  0  0  0  0  0  0
   -2.7953    4.5137    3.7431 C   0  0  0  0  0  0  0  0  0  0  0  0
    0.6126    2.5206    2.1173 C   0  0  0  0  0  0  0  0  0  0  0  0
    1.4804    3.2671    1.2699 C   0  0  0  0  0  0  0  0  0  0  0  0
    1.2080    4.6198    1.0068 C   0  0  0  0  0  0  0  0  0  0  0  0
    0.1079    5.2122    1.5586 C   0  0  0  0  0  0  0  0  0  0  0  0
    1.8901    0.5191    1.6095 C   0  0  0  0  0  0  0  0  0  0  0  0
    2.5524    2.5809    0.6286 C   0  0  0  0  0  0  0  0  0  0  0  0
    2.0050   -0.9294    1.4638 C   0  0  0  0  0  0  0  0  0  0  0  0
    3.8515    3.5881    4.1208 Br  0  0  0  0  0  0  0  0  0  0  0  0
    0.8812   -1.6245    0.9594 N   0  0  0  0  0  0  0  0  0  0  0  0
    0.8967   -2.9391    1.4393 N   0  0  0  0  0  0  0  0  0  0  0  0
    2.0782   -3.6624    1.4536 C   0  0  0  0  0  0  0  0  0  0  0  0
    3.2077   -2.8466    1.4626 N   0  0  0  0  0  0  0  0  0  0  0  0
    3.1061   -1.5206    1.7104 N   0  0  0  0  0  0  0  0  0  0  0  0
    2.1308   -4.8652    1.5041 O   0  0  0  0  0  0  0  0  0  0  0  0
    0.7298    1.1233    2.0727 C   0  0  0  0  0  0  0  0  0  0  0  0
    2.9258    1.2968    1.0946 C   0  0  0  0  0  0  0  0  0  0  0  0
    0.1229   -1.9885    5.5032 C   0  0  0  0  0  0  0  0  0  0  0  0
    1.4268   -1.8947    5.1450 C   0  0  0  0  0  0  0  0  0  0  0  0
   -3.2349    2.3827    4.9204 N   0  0  0  0  0  0  0  0  0  0  0  0
   -7.0270    5.8486    8.7772 Si  0  0  0  0  0  0  0  0  0  0  0  0
   -5.4192    5.2999    7.8528 C   0  0  0  0  0  0  0  0  0  0  0  0
   -5.6308    4.0630    7.0088 C   0  0  0  0  0  0  0  0  0  0  0  0
   -4.4244    3.7835    6.3107 O   0  0  0  0  0  0  0  0  0  0  0  0
   -6.4891    7.3006    9.8941 C   0  0  0  0  0  0  0  0  0  0  0  0
   -7.6973    4.3949    9.8083 C   0  0  0  0  0  0  0  0  0  0  0  0
   -8.3107    6.4100    7.4844 C   0  0  0  0  0  0  0  0  0  0  0  0
   -4.5357    2.7090    5.4229 C   0  0  0  0  0  0  0  0  0  0  0  0
   -0.3363   -3.4372    1.9227 C   0  0  0  0  0  0  0  0  0  0  0  0
   -1.2387   -2.5324    2.4768 C   0  0  0  0  0  0  0  0  0  0  0  0
   -2.4503   -2.9753    2.9704 C   0  0  0  0  0  0  0  0  0  0  0  0
   -2.7740   -4.3213    2.9212 C   0  0  0  0  0  0  0  0  0  0  0  0
   -1.8763   -5.2195    2.3695 C   0  0  0  0  0  0  0  0  0  0  0  0
   -0.6634   -4.7873    1.8615 C   0  0  0  0  0  0  0  0  0  0  0  0
    4.5202   -3.3805    1.5332 C   0  0  0  0  0  0  0  0  0  0  0  0
    4.8463   -4.5675    0.8864 C   0  0  0  0  0  0  0  0  0  0  0  0
    6.1397   -5.0520    0.9673 C   0  0  0  0  0  0  0  0  0  0  0  0
    7.1106   -4.3580    1.6701 C   0  0  0  0  0  0  0  0  0  0  0  0
    6.7863   -3.1615    2.2903 C   0  0  0  0  0  0  0  0  0  0  0  0
    5.4980   -2.6683    2.2217 C   0  0  0  0  0  0  0  0  0  0  0  0
    5.2337   -1.7366    2.6948 H   0  0  0  0  0  0  0  0  0  0  0  0
    7.5385   -2.6130    2.8360 H   0  0  0  0  0  0  0  0  0  0  0  0
    8.1152   -4.7454    1.7326 H   0  0  0  0  0  0  0  0  0  0  0  0
    6.3881   -5.9784    0.4736 H   0  0  0  0  0  0  0  0  0  0  0  0
    4.1003   -5.1183    0.3386 H   0  0  0  0  0  0  0  0  0  0  0  0
    0.0308   -5.4966    1.4457 H   0  0  0  0  0  0  0  0  0  0  0  0
   -2.1197   -6.2697    2.3283 H   0  0  0  0  0  0  0  0  0  0  0  0
   -3.7176   -4.6679    3.3120 H   0  0  0  0  0  0  0  0  0  0  0  0
   -3.1363   -2.2628    3.4033 H   0  0  0  0  0  0  0  0  0  0  0  0
   -0.9830   -1.4858    2.5243 H   0  0  0  0  0  0  0  0  0  0  0  0
    3.8414    0.8274    0.7780 H   0  0  0  0  0  0  0  0  0  0  0  0
    5.7220    5.0257    1.8804 H   0  0  0  0  0  0  0  0  0  0  0  0
   -5.0734    6.1061    7.2078 H   0  0  0  0  0  0  0  0  0  0  0  0
   -4.6238    5.1028    8.5686 H   0  0  0  0  0  0  0  0  0  0  0  0
   -5.8955    3.2015    7.6368 H   0  0  0  0  0  0  0  0  0  0  0  0
   -6.4408    4.2193    6.2827 H   0  0  0  0  0  0  0  0  0  0  0  0
   -5.0867    3.6595    2.4014 H   0  0  0  0  0  0  0  0  0  0  0  0
   -4.9569    1.8278    5.9292 H   0  0  0  0  0  0  0  0  0  0  0  0
   -8.0868    3.5989    9.1800 H   0  0  0  0  0  0  0  0  0  0  0  0
   -8.5078    4.7201   10.4534 H   0  0  0  0  0  0  0  0  0  0  0  0
   -6.9292    3.9674   10.4465 H   0  0  0  0  0  0  0  0  0  0  0  0
   -5.7563    6.9854   10.6296 H   0  0  0  0  0  0  0  0  0  0  0  0
   -7.3466    7.6956   10.4277 H   0  0  0  0  0  0  0  0  0  0  0  0
   -6.0555    8.1093    9.3150 H   0  0  0  0  0  0  0  0  0  0  0  0
   -8.5844    5.6067    6.8061 H   0  0  0  0  0  0  0  0  0  0  0  0
   -7.9379    7.2362    6.8860 H   0  0  0  0  0  0  0  0  0  0  0  0
   -9.2218    6.7474    7.9688 H   0  0  0  0  0  0  0  0  0  0  0  0
   -0.0989    0.5151    2.3922 H   0  0  0  0  0  0  0  0  0  0  0  0
    1.8792    5.1688    0.3653 H   0  0  0  0  0  0  0  0  0  0  0  0
   -0.1210    6.2419    1.3288 H   0  0  0  0  0  0  0  0  0  0  0  0
   -2.0841    6.1936    2.6548 H   0  0  0  0  0  0  0  0  0  0  0  0
   -3.6972    4.9878    4.0907 H   0  0  0  0  0  0  0  0  0  0  0  0
   -3.9208    0.0160    6.2686 H   0  0  0  0  0  0  0  0  0  0  0  0
   -2.3950   -1.9131    6.3184 H   0  0  0  0  0  0  0  0  0  0  0  0
   -0.2864   -2.9262    5.8471 H   0  0  0  0  0  0  0  0  0  0  0  0
    2.0744   -2.7582    5.1708 H   0  0  0  0  0  0  0  0  0  0  0  0
    4.0008   -1.3542    4.6924 H   0  0  0  0  0  0  0  0  0  0  0  0
    4.9872    0.8648    4.2271 H   0  0  0  0  0  0  0  0  0  0  0  0
    1.1385    2.6580    4.6835 H   0  0  0  0  0  0  0  0  0  0  0  0
  1  2  2  0  0  0  0
  1 94  1  0  0  0  0
  2  3  1  0  0  0  0
  2 95  1  0  0  0  0
  3  4  2  0  0  0  0
  3 26  1  0  0  0  0
  4  5  1  0  0  0  0
  4 96  1  0  0  0  0
  5  7  1  0  0  0  0
  6  1  1  0  0  0  0
  6  5  2  0  0  0  0
  7  9  1  0  0  0  0
  7  8  2  0  0  0  0
  8 35  1  0  0  0  0
  9 10  2  0  0  0  0
  9 13  1  0  0  0  0
 10 37  1  0  0  0  0
 10 11  1  0  0  0  0
 11 12  2  0  0  0  0
 11 90  1  0  0  0  0
 12  8  1  0  0  0  0
 12 91  1  0  0  0  0
 13 14  2  0  0  0  0
 14 37  1  0  0  0  0
 14 18  1  0  0  0  0
 15 16  2  0  0  0  0
 15 19  1  0  0  0  0
 15 13  1  0  0  0  0
 17 18  2  0  0  0  0
 17 16  1  0  0  0  0
 17 88  1  0  0  0  0
 18 89  1  0  0  0  0
 19 20  2  0  0  0  0
 20 21  1  0  0  0  0
 21 22  2  0  0  0  0
 21 86  1  0  0  0  0
 22 16  1  0  0  0  0
 22 87  1  0  0  0  0
 23 25  1  0  0  0  0
 23 33  2  0  0  0  0
 23 34  1  0  0  0  0
 24 20  1  0  0  0  0
 24 69  1  0  0  0  0
 25 27  1  0  0  0  0
 27 28  1  0  0  0  0
 28 46  1  0  0  0  0
 28 29  1  0  0  0  0
 29 30  1  0  0  0  0
 29 32  2  0  0  0  0
 30 52  1  0  0  0  0
 30 31  1  0  0  0  0
 31 25  2  0  0  0  0
 33 19  1  0  0  0  0
 33 85  1  0  0  0  0
 34 24  2  0  0  0  0
 34 68  1  0  0  0  0
 35 36  2  0  0  0  0
 35 92  1  0  0  0  0
 36  6  1  0  0  0  0
 36 93  1  0  0  0  0
 37 45  1  0  0  0  0
 38 39  1  0  0  0  0
 38 42  1  0  0  0  0
 38 43  1  0  0  0  0
 38 44  1  0  0  0  0
 39 40  1  0  0  0  0
 39 70  1  0  0  0  0
 39 71  1  0  0  0  0
 40 41  1  0  0  0  0
 40 72  1  0  0  0  0
 40 73  1  0  0  0  0
 41 45  1  0  0  0  0
 42 79  1  0  0  0  0
 42 80  1  0  0  0  0
 42 81  1  0  0  0  0
 43 76  1  0  0  0  0
 43 77  1  0  0  0  0
 43 78  1  0  0  0  0
 44 82  1  0  0  0  0
 44 83  1  0  0  0  0
 44 84  1  0  0  0  0
 45 74  1  0  0  0  0
 45 75  1  0  0  0  0
 46 47  2  0  0  0  0
 46 51  1  0  0  0  0
 47 48  1  0  0  0  0
 47 67  1  0  0  0  0
 48 49  2  0  0  0  0
 48 66  1  0  0  0  0
 49 50  1  0  0  0  0
 49 65  1  0  0  0  0
 50 51  2  0  0  0  0
 50 64  1  0  0  0  0
 51 63  1  0  0  0  0
 52 53  2  0  0  0  0
 52 57  1  0  0  0  0
 53 54  1  0  0  0  0
 53 62  1  0  0  0  0
 54 55  2  0  0  0  0
 54 61  1  0  0  0  0
 55 56  1  0  0  0  0
 55 60  1  0  0  0  0
 56 57  2  0  0  0  0
 56 59  1  0  0  0  0
 57 58  1  0  0  0  0
 97 98  2  0  0  0  0
 97190  1  0  0  0  0
 98 99  1  0  0  0  0
 98191  1  0  0  0  0
 99100  2  0  0  0  0
 99122  1  0  0  0  0
100101  1  0  0  0  0
100192  1  0  0  0  0
101103  1  0  0  0  0
102 97  1  0  0  0  0
102101  2  0  0  0  0
103105  1  0  0  0  0
103104  2  0  0  0  0
104131  1  0  0  0  0
105106  2  0  0  0  0
105109  1  0  0  0  0
106133  1  0  0  0  0
106107  1  0  0  0  0
107108  2  0  0  0  0
107186  1  0  0  0  0
108104  1  0  0  0  0
108187  1  0  0  0  0
109110  2  0  0  0  0
110133  1  0  0  0  0
110114  1  0  0  0  0
111112  2  0  0  0  0
111115  1  0  0  0  0
111109  1  0  0  0  0
113114  2  0  0  0  0
113112  1  0  0  0  0
113184  1  0  0  0  0
114185  1  0  0  0  0
115116  2  0  0  0  0
116117  1  0  0  0  0
117118  2  0  0  0  0
117182  1  0  0  0  0
118112  1  0  0  0  0
118183  1  0  0  0  0
119121  1  0  0  0  0
119129  2  0  0  0  0
119130  1  0  0  0  0
120116  1  0  0  0  0
120165  1  0  0  0  0
121123  1  0  0  0  0
123124  1  0  0  0  0
124142  1  0  0  0  0
124125  1  0  0  0  0
125126  1  0  0  0  0
125128  2  0  0  0  0
126148  1  0  0  0  0
126127  1  0  0  0  0
127121  2  0  0  0  0
129115  1  0  0  0  0
129181  1  0  0  0  0
130120  2  0  0  0  0
130164  1  0  0  0  0
131132  2  0  0  0  0
131188  1  0  0  0  0
132102  1  0  0  0  0
132189  1  0  0  0  0
133141  1  0  0  0  0
134135  1  0  0  0  0
134138  1  0  0  0  0
134139  1  0  0  0  0
134140  1  0  0  0  0
135136  1  0  0  0  0
135166  1  0  0  0  0
135167  1  0  0  0  0
136137  1  0  0  0  0
136168  1  0  0  0  0
136169  1  0  0  0  0
137141  1  0  0  0  0
138175  1  0  0  0  0
138176  1  0  0  0  0
138177  1  0  0  0  0
139172  1  0  0  0  0
139173  1  0  0  0  0
139174  1  0  0  0  0
140178  1  0  0  0  0
140179  1  0  0  0  0
140180  1  0  0  0  0
141170  1  0  0  0  0
141171  1  0  0  0  0
142143  2  0  0  0  0
142147  1  0  0  0  0
143144  1  0  0  0  0
143163  1  0  0  0  0
144145  2  0  0  0  0
144162  1  0  0  0  0
145146  1  0  0  0  0
145161  1  0  0  0  0
146147  2  0  0  0  0
146160  1  0  0  0  0
147159  1  0  0  0  0
148149  2  0  0  0  0
148153  1  0  0  0  0
149150  1  0  0  0  0
149158  1  0  0  0  0
150151  2  0  0  0  0
150157  1  0  0  0  0
151152  1  0  0  0  0
151156  1  0  0  0  0
152153  2  0  0  0  0
152155  1  0  0  0  0
153154  1  0  0  0  0
M  CHG  1   1   2
M  END
