 energy: -150.885795211312 gnorm: 0.000487643706 xtb: 6.6.1 (8d0f1dd)
          11142413203D

 96105  0     0  0            999 V2000
    3.4069   -0.0483   -0.8307 C   0  0  0  0  0  0  0  0  0  0  0  0
    3.9099    1.1888   -1.1403 C   0  0  0  0  0  0  0  0  0  0  0  0
    3.0419    2.2818   -1.1426 C   0  0  0  0  0  0  0  0  0  0  0  0
    1.6929    2.1311   -0.9291 C   0  0  0  0  0  0  0  0  0  0  0  0
    1.1454    0.8570   -0.7215 C   0  0  0  0  0  0  0  0  0  0  0  0
    2.0358   -0.2372   -0.5838 C   0  0  0  0  0  0  0  0  0  0  0  0
   -0.2711    0.6498   -0.5729 C   0  0  0  0  0  0  0  0  0  0  0  0
   -0.6916   -0.5613    0.0370 C   0  0  0  0  0  0  0  0  0  0  0  0
   -1.2775    1.5790   -0.9426 C   0  0  0  0  0  0  0  0  0  0  0  0
   -2.5651    1.4149   -0.3717 C   0  0  0  0  0  0  0  0  0  0  0  0
   -2.9428    0.2718    0.3377 C   0  0  0  0  0  0  0  0  0  0  0  0
   -2.0243   -0.7305    0.4697 C   0  0  0  0  0  0  0  0  0  0  0  0
   -1.3522    2.7973   -1.7254 C   0  0  0  0  0  0  0  0  0  0  0  0
   -2.6053    3.3783   -1.4128 C   0  0  0  0  0  0  0  0  0  0  0  0
   -0.5599    3.4420   -2.7081 C   0  0  0  0  0  0  0  0  0  0  0  0
   -0.8767    4.7868   -3.0324 C   0  0  0  0  0  0  0  0  0  0  0  0
   -2.0692    5.3780   -2.5663 C   0  0  0  0  0  0  0  0  0  0  0  0
   -2.9676    4.6642   -1.8226 C   0  0  0  0  0  0  0  0  0  0  0  0
    0.5208    2.8237   -3.4257 C   0  0  0  0  0  0  0  0  0  0  0  0
    1.4319    3.6204   -4.1641 C   0  0  0  0  0  0  0  0  0  0  0  0
    1.1713    5.0069   -4.3170 C   0  0  0  0  0  0  0  0  0  0  0  0
    0.0267    5.5454   -3.8249 C   0  0  0  0  0  0  0  0  0  0  0  0
    1.8099    0.8604   -4.0159 C   0  0  0  0  0  0  0  0  0  0  0  0
    2.5553    3.0130   -4.7545 C   0  0  0  0  0  0  0  0  0  0  0  0
    2.0260   -0.5605   -3.8120 C   0  0  0  0  0  0  0  0  0  0  0  0
    3.7410    4.0207   -1.4642 Br  0  0  0  0  0  0  0  0  0  0  0  0
    1.0092   -1.2921   -3.3827 N   0  0  0  0  0  0  0  0  0  0  0  0
    1.2259   -2.5308   -2.9931 N   0  0  0  0  0  0  0  0  0  0  0  0
    2.5244   -3.0659   -2.9241 C   0  0  0  0  0  0  0  0  0  0  0  0
    3.4594   -2.2991   -3.6279 N   0  0  0  0  0  0  0  0  0  0  0  0
    3.2285   -1.0679   -4.0371 N   0  0  0  0  0  0  0  0  0  0  0  0
    2.8185   -4.0621   -2.3189 O   0  0  0  0  0  0  0  0  0  0  0  0
    0.6864    1.4383   -3.4504 C   0  0  0  0  0  0  0  0  0  0  0  0
    2.7723    1.6647   -4.6473 C   0  0  0  0  0  0  0  0  0  0  0  0
    0.2385   -1.6184    0.2225 C   0  0  0  0  0  0  0  0  0  0  0  0
    1.5393   -1.4917   -0.1388 C   0  0  0  0  0  0  0  0  0  0  0  0
   -3.3423    2.5033   -0.6591 N   0  0  0  0  0  0  0  0  0  0  0  0
   -7.0192    4.9463    3.9929 Si  0  0  0  0  0  0  0  0  0  0  0  0
   -5.4643    4.2043    3.1256 C   0  0  0  0  0  0  0  0  0  0  0  0
   -5.7466    3.6949    1.7295 C   0  0  0  0  0  0  0  0  0  0  0  0
   -4.5190    3.2727    1.1562 O   0  0  0  0  0  0  0  0  0  0  0  0
   -6.5162    5.2815    5.7995 C   0  0  0  0  0  0  0  0  0  0  0  0
   -8.4503    3.6892    3.9071 C   0  0  0  0  0  0  0  0  0  0  0  0
   -7.4984    6.5640    3.1048 C   0  0  0  0  0  0  0  0  0  0  0  0
   -4.6491    2.7483   -0.1348 C   0  0  0  0  0  0  0  0  0  0  0  0
    0.0812   -3.2599   -2.6104 C   0  0  0  0  0  0  0  0  0  0  0  0
   -1.1242   -2.5586   -2.4954 C   0  0  0  0  0  0  0  0  0  0  0  0
   -2.2743   -3.2188   -2.1210 C   0  0  0  0  0  0  0  0  0  0  0  0
   -2.2462   -4.5826   -1.8644 C   0  0  0  0  0  0  0  0  0  0  0  0
   -1.0565   -5.2806   -1.9956 C   0  0  0  0  0  0  0  0  0  0  0  0
    0.1074   -4.6335   -2.3676 C   0  0  0  0  0  0  0  0  0  0  0  0
    4.7609   -2.7875   -3.8659 C   0  0  0  0  0  0  0  0  0  0  0  0
    5.0139   -4.1439   -4.0582 C   0  0  0  0  0  0  0  0  0  0  0  0
    6.3083   -4.5585   -4.3086 C   0  0  0  0  0  0  0  0  0  0  0  0
    7.3443   -3.6391   -4.3723 C   0  0  0  0  0  0  0  0  0  0  0  0
    7.0852   -2.2878   -4.1902 C   0  0  0  0  0  0  0  0  0  0  0  0
    5.7990   -1.8572   -3.9395 C   0  0  0  0  0  0  0  0  0  0  0  0
    5.5771   -0.8132   -3.7835 H   0  0  0  0  0  0  0  0  0  0  0  0
    7.8895   -1.5705   -4.2371 H   0  0  0  0  0  0  0  0  0  0  0  0
    8.3515   -3.9742   -4.5641 H   0  0  0  0  0  0  0  0  0  0  0  0
    6.5062   -5.6077   -4.4618 H   0  0  0  0  0  0  0  0  0  0  0  0
    4.2152   -4.8660   -4.0266 H   0  0  0  0  0  0  0  0  0  0  0  0
    1.0177   -5.1998   -2.4594 H   0  0  0  0  0  0  0  0  0  0  0  0
   -1.0292   -6.3425   -1.8085 H   0  0  0  0  0  0  0  0  0  0  0  0
   -3.1465   -5.0978   -1.5681 H   0  0  0  0  0  0  0  0  0  0  0  0
   -3.1960   -2.6663   -2.0260 H   0  0  0  0  0  0  0  0  0  0  0  0
   -1.1392   -1.5012   -2.6977 H   0  0  0  0  0  0  0  0  0  0  0  0
    3.6514    1.2032   -5.0670 H   0  0  0  0  0  0  0  0  0  0  0  0
    3.2579    3.6372   -5.2853 H   0  0  0  0  0  0  0  0  0  0  0  0
   -4.6846    4.9617    3.0597 H   0  0  0  0  0  0  0  0  0  0  0  0
   -5.0575    3.3855    3.7166 H   0  0  0  0  0  0  0  0  0  0  0  0
   -6.4493    2.8502    1.7555 H   0  0  0  0  0  0  0  0  0  0  0  0
   -6.1865    4.4846    1.1033 H   0  0  0  0  0  0  0  0  0  0  0  0
   -5.1782    3.4551   -0.7948 H   0  0  0  0  0  0  0  0  0  0  0  0
   -5.2220    1.8047   -0.1195 H   0  0  0  0  0  0  0  0  0  0  0  0
   -8.7802    3.5227    2.8856 H   0  0  0  0  0  0  0  0  0  0  0  0
   -9.3092    4.0419    4.4699 H   0  0  0  0  0  0  0  0  0  0  0  0
   -8.1639    2.7275    4.3231 H   0  0  0  0  0  0  0  0  0  0  0  0
   -6.2441    4.3663    6.3161 H   0  0  0  0  0  0  0  0  0  0  0  0
   -7.3363    5.7347    6.3463 H   0  0  0  0  0  0  0  0  0  0  0  0
   -5.6690    5.9575    5.8591 H   0  0  0  0  0  0  0  0  0  0  0  0
   -7.8519    6.3831    2.0936 H   0  0  0  0  0  0  0  0  0  0  0  0
   -6.6569    7.2481    3.0424 H   0  0  0  0  0  0  0  0  0  0  0  0
   -8.2938    7.0770    3.6369 H   0  0  0  0  0  0  0  0  0  0  0  0
   -0.0673    0.8013   -3.0222 H   0  0  0  0  0  0  0  0  0  0  0  0
    1.8764    5.6088   -4.8689 H   0  0  0  0  0  0  0  0  0  0  0  0
   -0.2120    6.5824   -4.0069 H   0  0  0  0  0  0  0  0  0  0  0  0
   -2.2784    6.4010   -2.8377 H   0  0  0  0  0  0  0  0  0  0  0  0
   -3.9070    5.0990   -1.5225 H   0  0  0  0  0  0  0  0  0  0  0  0
   -3.9318    0.1804    0.7554 H   0  0  0  0  0  0  0  0  0  0  0  0
   -2.2917   -1.6576    0.9529 H   0  0  0  0  0  0  0  0  0  0  0  0
   -0.1243   -2.5446    0.6431 H   0  0  0  0  0  0  0  0  0  0  0  0
    2.2289   -2.3167   -0.0308 H   0  0  0  0  0  0  0  0  0  0  0  0
    4.0723   -0.8967   -0.7483 H   0  0  0  0  0  0  0  0  0  0  0  0
    4.9613    1.3324   -1.3329 H   0  0  0  0  0  0  0  0  0  0  0  0
    1.0575    2.9993   -0.8832 H   0  0  0  0  0  0  0  0  0  0  0  0
  1  2  2  0  0  0  0
  1 94  1  0  0  0  0
  2  3  1  0  0  0  0
  2 95  1  0  0  0  0
  3  4  2  0  0  0  0
  3 26  1  0  0  0  0
  4  5  1  0  0  0  0
  4 96  1  0  0  0  0
  5  7  1  0  0  0  0
  6  1  1  0  0  0  0
  6  5  2  0  0  0  0
  7  9  1  0  0  0  0
  7  8  2  0  0  0  0
  8 35  1  0  0  0  0
  9 10  2  0  0  0  0
  9 13  1  0  0  0  0
 10 37  1  0  0  0  0
 10 11  1  0  0  0  0
 11 12  2  0  0  0  0
 11 90  1  0  0  0  0
 12  8  1  0  0  0  0
 12 91  1  0  0  0  0
 13 14  2  0  0  0  0
 14 37  1  0  0  0  0
 14 18  1  0  0  0  0
 15 16  2  0  0  0  0
 15 19  1  0  0  0  0
 15 13  1  0  0  0  0
 17 18  2  0  0  0  0
 17 16  1  0  0  0  0
 17 88  1  0  0  0  0
 18 89  1  0  0  0  0
 19 20  2  0  0  0  0
 20 21  1  0  0  0  0
 21 22  2  0  0  0  0
 21 86  1  0  0  0  0
 22 16  1  0  0  0  0
 22 87  1  0  0  0  0
 23 25  1  0  0  0  0
 23 33  2  0  0  0  0
 23 34  1  0  0  0  0
 24 20  1  0  0  0  0
 24 69  1  0  0  0  0
 25 27  1  0  0  0  0
 27 28  1  0  0  0  0
 28 46  1  0  0  0  0
 28 29  1  0  0  0  0
 29 30  1  0  0  0  0
 29 32  2  0  0  0  0
 30 52  1  0  0  0  0
 30 31  1  0  0  0  0
 31 25  2  0  0  0  0
 33 19  1  0  0  0  0
 33 85  1  0  0  0  0
 34 24  2  0  0  0  0
 34 68  1  0  0  0  0
 35 36  2  0  0  0  0
 35 92  1  0  0  0  0
 36  6  1  0  0  0  0
 36 93  1  0  0  0  0
 37 45  1  0  0  0  0
 38 39  1  0  0  0  0
 38 42  1  0  0  0  0
 38 43  1  0  0  0  0
 38 44  1  0  0  0  0
 39 40  1  0  0  0  0
 39 70  1  0  0  0  0
 39 71  1  0  0  0  0
 40 41  1  0  0  0  0
 40 72  1  0  0  0  0
 40 73  1  0  0  0  0
 41 45  1  0  0  0  0
 42 79  1  0  0  0  0
 42 80  1  0  0  0  0
 42 81  1  0  0  0  0
 43 76  1  0  0  0  0
 43 77  1  0  0  0  0
 43 78  1  0  0  0  0
 44 82  1  0  0  0  0
 44 83  1  0  0  0  0
 44 84  1  0  0  0  0
 45 74  1  0  0  0  0
 45 75  1  0  0  0  0
 46 47  2  0  0  0  0
 46 51  1  0  0  0  0
 47 48  1  0  0  0  0
 47 67  1  0  0  0  0
 48 49  2  0  0  0  0
 48 66  1  0  0  0  0
 49 50  1  0  0  0  0
 49 65  1  0  0  0  0
 50 51  2  0  0  0  0
 50 64  1  0  0  0  0
 51 63  1  0  0  0  0
 52 53  2  0  0  0  0
 52 57  1  0  0  0  0
 53 54  1  0  0  0  0
 53 62  1  0  0  0  0
 54 55  2  0  0  0  0
 54 61  1  0  0  0  0
 55 56  1  0  0  0  0
 55 60  1  0  0  0  0
 56 57  2  0  0  0  0
 56 59  1  0  0  0  0
 57 58  1  0  0  0  0
M  CHG  1   1   1
M  END
