energy: -151.284626879764 gnorm: 0.000362061700 xtb: 6.6.1 (8d0f1dd)_energy: -151.284626879764 gnorm: 0.000362061700 xtb: 6.6.1 (8d0f1dd)
 OpenBabel11142413233D

192210  0  0  0  0  0  0  0  0999 V2000
    3.4980    0.0227   -0.9898 C   0  0  0  0  0  0  0  0  0  0  0  0
    3.9802    1.2685   -1.2940 C   0  0  0  0  0  0  0  0  0  0  0  0
    3.1041    2.3529   -1.2402 C   0  0  0  0  0  0  0  0  0  0  0  0
    1.7682    2.1937   -0.9809 C   0  0  0  0  0  0  0  0  0  0  0  0
    1.2385    0.9096   -0.7761 C   0  0  0  0  0  0  0  0  0  0  0  0
    2.1398   -0.1796   -0.6911 C   0  0  0  0  0  0  0  0  0  0  0  0
   -0.1675    0.6879   -0.5774 C   0  0  0  0  0  0  0  0  0  0  0  0
   -0.5573   -0.5263    0.0363 C   0  0  0  0  0  0  0  0  0  0  0  0
   -1.1942    1.6122   -0.9079 C   0  0  0  0  0  0  0  0  0  0  0  0
   -2.4578    1.4436   -0.2964 C   0  0  0  0  0  0  0  0  0  0  0  0
   -2.7993    0.2993    0.4268 C   0  0  0  0  0  0  0  0  0  0  0  0
   -1.8707   -0.7000    0.5199 C   0  0  0  0  0  0  0  0  0  0  0  0
   -1.3000    2.8141   -1.7024 C   0  0  0  0  0  0  0  0  0  0  0  0
   -2.5448    3.3926   -1.3670 C   0  0  0  0  0  0  0  0  0  0  0  0
   -0.5289    3.4460   -2.7127 C   0  0  0  0  0  0  0  0  0  0  0  0
   -0.8492    4.7831   -3.0428 C   0  0  0  0  0  0  0  0  0  0  0  0
   -2.0335    5.3762   -2.5582 C   0  0  0  0  0  0  0  0  0  0  0  0
   -2.9173    4.6706   -1.7884 C   0  0  0  0  0  0  0  0  0  0  0  0
    0.5267    2.8098   -3.4490 C   0  0  0  0  0  0  0  0  0  0  0  0
    1.4288    3.5923   -4.2091 C   0  0  0  0  0  0  0  0  0  0  0  0
    1.1740    4.9802   -4.3676 C   0  0  0  0  0  0  0  0  0  0  0  0
    0.0421    5.5294   -3.8638 C   0  0  0  0  0  0  0  0  0  0  0  0
    1.7737    0.8253   -4.0545 C   0  0  0  0  0  0  0  0  0  0  0  0
    2.5354    2.9672   -4.8122 C   0  0  0  0  0  0  0  0  0  0  0  0
    1.9701   -0.6106   -3.8648 C   0  0  0  0  0  0  0  0  0  0  0  0
    3.7880    4.1039   -1.5388 Br  0  0  0  0  0  0  0  0  0  0  0  0
    0.9251   -1.3200   -3.4853 N   0  0  0  0  0  0  0  0  0  0  0  0
    1.1324   -2.6088   -3.1353 N   0  0  0  0  0  0  0  0  0  0  0  0
    2.4085   -3.1599   -3.0753 C   0  0  0  0  0  0  0  0  0  0  0  0
    3.3869   -2.3744   -3.6715 N   0  0  0  0  0  0  0  0  0  0  0  0
    3.1875   -1.0884   -4.0344 N   0  0  0  0  0  0  0  0  0  0  0  0
    2.6618   -4.2154   -2.5400 O   0  0  0  0  0  0  0  0  0  0  0  0
    0.6735    1.4195   -3.4727 C   0  0  0  0  0  0  0  0  0  0  0  0
    2.7361    1.6173   -4.6997 C   0  0  0  0  0  0  0  0  0  0  0  0
    0.3844   -1.5850    0.1620 C   0  0  0  0  0  0  0  0  0  0  0  0
    1.6653   -1.4457   -0.2543 C   0  0  0  0  0  0  0  0  0  0  0  0
   -3.2566    2.5244   -0.5758 N   0  0  0  0  0  0  0  0  0  0  0  0
   -7.0617    4.9145    4.0044 Si  0  0  0  0  0  0  0  0  0  0  0  0
   -5.4749    4.2223    3.1836 C   0  0  0  0  0  0  0  0  0  0  0  0
   -5.7038    3.6854    1.7848 C   0  0  0  0  0  0  0  0  0  0  0  0
   -4.4586    3.3036    1.2356 O   0  0  0  0  0  0  0  0  0  0  0  0
   -6.6658    5.2828    5.8320 C   0  0  0  0  0  0  0  0  0  0  0  0
   -8.4689    3.6291    3.8887 C   0  0  0  0  0  0  0  0  0  0  0  0
   -7.5890    6.5195    3.1151 C   0  0  0  0  0  0  0  0  0  0  0  0
   -4.5606    2.7506   -0.0497 C   0  0  0  0  0  0  0  0  0  0  0  0
   -0.0209   -3.2934   -2.7133 C   0  0  0  0  0  0  0  0  0  0  0  0
   -1.1697   -2.5423   -2.4543 C   0  0  0  0  0  0  0  0  0  0  0  0
   -2.3280   -3.1636   -2.0379 C   0  0  0  0  0  0  0  0  0  0  0  0
   -2.3671   -4.5401   -1.8815 C   0  0  0  0  0  0  0  0  0  0  0  0
   -1.2356   -5.2883   -2.1594 C   0  0  0  0  0  0  0  0  0  0  0  0
   -0.0664   -4.6796   -2.5766 C   0  0  0  0  0  0  0  0  0  0  0  0
    4.7156   -2.8217   -3.8003 C   0  0  0  0  0  0  0  0  0  0  0  0
    5.0232   -4.1609   -4.0215 C   0  0  0  0  0  0  0  0  0  0  0  0
    6.3451   -4.5399   -4.1640 C   0  0  0  0  0  0  0  0  0  0  0  0
    7.3611   -3.6009   -4.0988 C   0  0  0  0  0  0  0  0  0  0  0  0
    7.0504   -2.2659   -3.8926 C   0  0  0  0  0  0  0  0  0  0  0  0
    5.7359   -1.8731   -3.7442 C   0  0  0  0  0  0  0  0  0  0  0  0
    5.4741   -0.8393   -3.5835 H   0  0  0  0  0  0  0  0  0  0  0  0
    7.8370   -1.5278   -3.8429 H   0  0  0  0  0  0  0  0  0  0  0  0
    8.3902   -3.9072   -4.2110 H   0  0  0  0  0  0  0  0  0  0  0  0
    6.5805   -5.5796   -4.3347 H   0  0  0  0  0  0  0  0  0  0  0  0
    4.2416   -4.8995   -4.0815 H   0  0  0  0  0  0  0  0  0  0  0  0
    0.8008   -5.2820   -2.7838 H   0  0  0  0  0  0  0  0  0  0  0  0
   -1.2590   -6.3626   -2.0534 H   0  0  0  0  0  0  0  0  0  0  0  0
   -3.2727   -5.0260   -1.5508 H   0  0  0  0  0  0  0  0  0  0  0  0
   -3.2033   -2.5663   -1.8299 H   0  0  0  0  0  0  0  0  0  0  0  0
   -1.1336   -1.4739   -2.5815 H   0  0  0  0  0  0  0  0  0  0  0  0
    3.6048    1.1403   -5.1251 H   0  0  0  0  0  0  0  0  0  0  0  0
    3.2374    3.5800   -5.3592 H   0  0  0  0  0  0  0  0  0  0  0  0
   -4.7141    4.9999    3.1205 H   0  0  0  0  0  0  0  0  0  0  0  0
   -5.0462    3.4228    3.7869 H   0  0  0  0  0  0  0  0  0  0  0  0
   -6.3788    2.8164    1.8087 H   0  0  0  0  0  0  0  0  0  0  0  0
   -6.1663    4.4515    1.1430 H   0  0  0  0  0  0  0  0  0  0  0  0
   -5.1092    3.4337   -0.7203 H   0  0  0  0  0  0  0  0  0  0  0  0
   -5.1146    1.7954   -0.0137 H   0  0  0  0  0  0  0  0  0  0  0  0
   -8.7584    3.4480    2.8576 H   0  0  0  0  0  0  0  0  0  0  0  0
   -9.3538    3.9658    4.4201 H   0  0  0  0  0  0  0  0  0  0  0  0
   -8.1735    2.6768    4.3194 H   0  0  0  0  0  0  0  0  0  0  0  0
   -6.3886    4.3814    6.3697 H   0  0  0  0  0  0  0  0  0  0  0  0
   -7.5236    5.7143    6.3377 H   0  0  0  0  0  0  0  0  0  0  0  0
   -5.8434    5.9852    5.9259 H   0  0  0  0  0  0  0  0  0  0  0  0
   -7.8831    6.3307    2.0868 H   0  0  0  0  0  0  0  0  0  0  0  0
   -6.7807    7.2446    3.0970 H   0  0  0  0  0  0  0  0  0  0  0  0
   -8.4335    6.9860    3.6134 H   0  0  0  0  0  0  0  0  0  0  0  0
   -0.0780    0.7918   -3.0275 H   0  0  0  0  0  0  0  0  0  0  0  0
    1.8761    5.5732   -4.9344 H   0  0  0  0  0  0  0  0  0  0  0  0
   -0.1956    6.5667   -4.0518 H   0  0  0  0  0  0  0  0  0  0  0  0
   -2.2512    6.3961   -2.8384 H   0  0  0  0  0  0  0  0  0  0  0  0
   -3.8540    5.1069   -1.4786 H   0  0  0  0  0  0  0  0  0  0  0  0
   -3.7725    0.2001    0.8810 H   0  0  0  0  0  0  0  0  0  0  0  0
   -2.1181   -1.6324    1.0050 H   0  0  0  0  0  0  0  0  0  0  0  0
    0.0400   -2.5231    0.5727 H   0  0  0  0  0  0  0  0  0  0  0  0
    2.3588   -2.2738   -0.2094 H   0  0  0  0  0  0  0  0  0  0  0  0
    4.1699   -0.8238   -0.9595 H   0  0  0  0  0  0  0  0  0  0  0  0
    5.0212    1.4239   -1.5313 H   0  0  0  0  0  0  0  0  0  0  0  0
    1.1255    3.0550   -0.9040 H   0  0  0  0  0  0  0  0  0  0  0  0
    3.4980    0.0227    3.0102 C   0  0  0  0  0  0  0  0  0  0  0  0
    3.9802    1.2685    2.7060 C   0  0  0  0  0  0  0  0  0  0  0  0
    3.1041    2.3529    2.7598 C   0  0  0  0  0  0  0  0  0  0  0  0
    1.7682    2.1937    3.0191 C   0  0  0  0  0  0  0  0  0  0  0  0
    1.2385    0.9096    3.2239 C   0  0  0  0  0  0  0  0  0  0  0  0
    2.1398   -0.1796    3.3089 C   0  0  0  0  0  0  0  0  0  0  0  0
   -0.1675    0.6879    3.4226 C   0  0  0  0  0  0  0  0  0  0  0  0
   -0.5573   -0.5263    4.0363 C   0  0  0  0  0  0  0  0  0  0  0  0
   -1.1942    1.6122    3.0921 C   0  0  0  0  0  0  0  0  0  0  0  0
   -2.4578    1.4436    3.7036 C   0  0  0  0  0  0  0  0  0  0  0  0
   -2.7993    0.2993    4.4268 C   0  0  0  0  0  0  0  0  0  0  0  0
   -1.8707   -0.7000    4.5199 C   0  0  0  0  0  0  0  0  0  0  0  0
   -1.3000    2.8141    2.2976 C   0  0  0  0  0  0  0  0  0  0  0  0
   -2.5448    3.3926    2.6330 C   0  0  0  0  0  0  0  0  0  0  0  0
   -0.5289    3.4460    1.2873 C   0  0  0  0  0  0  0  0  0  0  0  0
   -0.8492    4.7831    0.9572 C   0  0  0  0  0  0  0  0  0  0  0  0
   -2.0335    5.3762    1.4418 C   0  0  0  0  0  0  0  0  0  0  0  0
   -2.9173    4.6706    2.2116 C   0  0  0  0  0  0  0  0  0  0  0  0
    0.5267    2.8098    0.5510 C   0  0  0  0  0  0  0  0  0  0  0  0
    1.4288    3.5923   -0.2091 C   0  0  0  0  0  0  0  0  0  0  0  0
    1.1740    4.9802   -0.3676 C   0  0  0  0  0  0  0  0  0  0  0  0
    0.0421    5.5294    0.1362 C   0  0  0  0  0  0  0  0  0  0  0  0
    1.7737    0.8253   -0.0545 C   0  0  0  0  0  0  0  0  0  0  0  0
    2.5354    2.9672   -0.8122 C   0  0  0  0  0  0  0  0  0  0  0  0
    1.9701   -0.6106    0.1352 C   0  0  0  0  0  0  0  0  0  0  0  0
    3.7880    4.1039    2.4612 Br  0  0  0  0  0  0  0  0  0  0  0  0
    0.9251   -1.3200    0.5147 N   0  0  0  0  0  0  0  0  0  0  0  0
    1.1324   -2.6088    0.8647 N   0  0  0  0  0  0  0  0  0  0  0  0
    2.4085   -3.1599    0.9247 C   0  0  0  0  0  0  0  0  0  0  0  0
    3.3869   -2.3744    0.3285 N   0  0  0  0  0  0  0  0  0  0  0  0
    3.1875   -1.0884   -0.0344 N   0  0  0  0  0  0  0  0  0  0  0  0
    2.6618   -4.2154    1.4600 O   0  0  0  0  0  0  0  0  0  0  0  0
    0.6735    1.4195    0.5273 C   0  0  0  0  0  0  0  0  0  0  0  0
    2.7361    1.6173   -0.6997 C   0  0  0  0  0  0  0  0  0  0  0  0
    0.3844   -1.5850    4.1620 C   0  0  0  0  0  0  0  0  0  0  0  0
    1.6653   -1.4457    3.7457 C   0  0  0  0  0  0  0  0  0  0  0  0
   -3.2566    2.5244    3.4242 N   0  0  0  0  0  0  0  0  0  0  0  0
   -7.0617    4.9145    8.0044 Si  0  0  0  0  0  0  0  0  0  0  0  0
   -5.4749    4.2223    7.1836 C   0  0  0  0  0  0  0  0  0  0  0  0
   -5.7038    3.6854    5.7848 C   0  0  0  0  0  0  0  0  0  0  0  0
   -4.4586    3.3036    5.2356 O   0  0  0  0  0  0  0  0  0  0  0  0
   -6.6658    5.2828    9.8320 C   0  0  0  0  0  0  0  0  0  0  0  0
   -8.4689    3.6291    7.8887 C   0  0  0  0  0  0  0  0  0  0  0  0
   -7.5890    6.5195    7.1151 C   0  0  0  0  0  0  0  0  0  0  0  0
   -4.5606    2.7506    3.9503 C   0  0  0  0  0  0  0  0  0  0  0  0
   -0.0209   -3.2934    1.2867 C   0  0  0  0  0  0  0  0  0  0  0  0
   -1.1697   -2.5423    1.5457 C   0  0  0  0  0  0  0  0  0  0  0  0
   -2.3280   -3.1636    1.9621 C   0  0  0  0  0  0  0  0  0  0  0  0
   -2.3671   -4.5401    2.1185 C   0  0  0  0  0  0  0  0  0  0  0  0
   -1.2356   -5.2883    1.8406 C   0  0  0  0  0  0  0  0  0  0  0  0
   -0.0664   -4.6796    1.4234 C   0  0  0  0  0  0  0  0  0  0  0  0
    4.7156   -2.8217    0.1997 C   0  0  0  0  0  0  0  0  0  0  0  0
    5.0232   -4.1609   -0.0215 C   0  0  0  0  0  0  0  0  0  0  0  0
    6.3451   -4.5399   -0.1640 C   0  0  0  0  0  0  0  0  0  0  0  0
    7.3611   -3.6009   -0.0988 C   0  0  0  0  0  0  0  0  0  0  0  0
    7.0504   -2.2659    0.1074 C   0  0  0  0  0  0  0  0  0  0  0  0
    5.7359   -1.8731    0.2558 C   0  0  0  0  0  0  0  0  0  0  0  0
    5.4741   -0.8393    0.4165 H   0  0  0  0  0  0  0  0  0  0  0  0
    7.8370   -1.5278    0.1571 H   0  0  0  0  0  0  0  0  0  0  0  0
    8.3902   -3.9072   -0.2110 H   0  0  0  0  0  0  0  0  0  0  0  0
    6.5805   -5.5796   -0.3347 H   0  0  0  0  0  0  0  0  0  0  0  0
    4.2416   -4.8995   -0.0815 H   0  0  0  0  0  0  0  0  0  0  0  0
    0.8008   -5.2820    1.2162 H   0  0  0  0  0  0  0  0  0  0  0  0
   -1.2590   -6.3626    1.9466 H   0  0  0  0  0  0  0  0  0  0  0  0
   -3.2727   -5.0260    2.4492 H   0  0  0  0  0  0  0  0  0  0  0  0
   -3.2033   -2.5663    2.1701 H   0  0  0  0  0  0  0  0  0  0  0  0
   -1.1336   -1.4739    1.4185 H   0  0  0  0  0  0  0  0  0  0  0  0
    3.6048    1.1403   -1.1251 H   0  0  0  0  0  0  0  0  0  0  0  0
    3.2374    3.5800   -1.3592 H   0  0  0  0  0  0  0  0  0  0  0  0
   -4.7141    4.9999    7.1205 H   0  0  0  0  0  0  0  0  0  0  0  0
   -5.0462    3.4228    7.7869 H   0  0  0  0  0  0  0  0  0  0  0  0
   -6.3788    2.8164    5.8087 H   0  0  0  0  0  0  0  0  0  0  0  0
   -6.1663    4.4515    5.1430 H   0  0  0  0  0  0  0  0  0  0  0  0
   -5.1092    3.4337    3.2797 H   0  0  0  0  0  0  0  0  0  0  0  0
   -5.1146    1.7954    3.9863 H   0  0  0  0  0  0  0  0  0  0  0  0
   -8.7584    3.4480    6.8576 H   0  0  0  0  0  0  0  0  0  0  0  0
   -9.3538    3.9658    8.4201 H   0  0  0  0  0  0  0  0  0  0  0  0
   -8.1735    2.6768    8.3194 H   0  0  0  0  0  0  0  0  0  0  0  0
   -6.3886    4.3814   10.3697 H   0  0  0  0  0  0  0  0  0  0  0  0
   -7.5236    5.7143   10.3377 H   0  0  0  0  0  0  0  0  0  0  0  0
   -5.8434    5.9852    9.9259 H   0  0  0  0  0  0  0  0  0  0  0  0
   -7.8831    6.3307    6.0868 H   0  0  0  0  0  0  0  0  0  0  0  0
   -6.7807    7.2446    7.0970 H   0  0  0  0  0  0  0  0  0  0  0  0
   -8.4335    6.9860    7.6134 H   0  0  0  0  0  0  0  0  0  0  0  0
   -0.0780    0.7918    0.9725 H   0  0  0  0  0  0  0  0  0  0  0  0
    1.8761    5.5732   -0.9344 H   0  0  0  0  0  0  0  0  0  0  0  0
   -0.1956    6.5667   -0.0518 H   0  0  0  0  0  0  0  0  0  0  0  0
   -2.2512    6.3961    1.1616 H   0  0  0  0  0  0  0  0  0  0  0  0
   -3.8540    5.1069    2.5214 H   0  0  0  0  0  0  0  0  0  0  0  0
   -3.7725    0.2001    4.8810 H   0  0  0  0  0  0  0  0  0  0  0  0
   -2.1181   -1.6324    5.0050 H   0  0  0  0  0  0  0  0  0  0  0  0
    0.0400   -2.5231    4.5727 H   0  0  0  0  0  0  0  0  0  0  0  0
    2.3588   -2.2738    3.7906 H   0  0  0  0  0  0  0  0  0  0  0  0
    4.1699   -0.8238    3.0405 H   0  0  0  0  0  0  0  0  0  0  0  0
    5.0212    1.4239    2.4687 H   0  0  0  0  0  0  0  0  0  0  0  0
    1.1255    3.0550    3.0960 H   0  0  0  0  0  0  0  0  0  0  0  0
  1  2  2  0  0  0  0
  1 94  1  0  0  0  0
  2  3  1  0  0  0  0
  2 95  1  0  0  0  0
  3  4  2  0  0  0  0
  3 26  1  0  0  0  0
  4  5  1  0  0  0  0
  4 96  1  0  0  0  0
  5  7  1  0  0  0  0
  6  1  1  0  0  0  0
  6  5  2  0  0  0  0
  7  9  1  0  0  0  0
  7  8  2  0  0  0  0
  8 35  1  0  0  0  0
  9 10  2  0  0  0  0
  9 13  1  0  0  0  0
 10 37  1  0  0  0  0
 10 11  1  0  0  0  0
 11 12  2  0  0  0  0
 11 90  1  0  0  0  0
 12  8  1  0  0  0  0
 12 91  1  0  0  0  0
 13 14  2  0  0  0  0
 14 37  1  0  0  0  0
 14 18  1  0  0  0  0
 15 16  2  0  0  0  0
 15 19  1  0  0  0  0
 15 13  1  0  0  0  0
 17 18  2  0  0  0  0
 17 16  1  0  0  0  0
 17 88  1  0  0  0  0
 18 89  1  0  0  0  0
 19 20  2  0  0  0  0
 20 21  1  0  0  0  0
 21 22  2  0  0  0  0
 21 86  1  0  0  0  0
 22 16  1  0  0  0  0
 22 87  1  0  0  0  0
 23 25  1  0  0  0  0
 23 33  2  0  0  0  0
 23 34  1  0  0  0  0
 24 20  1  0  0  0  0
 24 69  1  0  0  0  0
 25 27  1  0  0  0  0
 27 28  1  0  0  0  0
 28 46  1  0  0  0  0
 28 29  1  0  0  0  0
 29 30  1  0  0  0  0
 29 32  2  0  0  0  0
 30 52  1  0  0  0  0
 30 31  1  0  0  0  0
 31 25  2  0  0  0  0
 33 19  1  0  0  0  0
 33 85  1  0  0  0  0
 34 24  2  0  0  0  0
 34 68  1  0  0  0  0
 35 36  2  0  0  0  0
 35 92  1  0  0  0  0
 36  6  1  0  0  0  0
 36 93  1  0  0  0  0
 37 45  1  0  0  0  0
 38 39  1  0  0  0  0
 38 42  1  0  0  0  0
 38 43  1  0  0  0  0
 38 44  1  0  0  0  0
 39 40  1  0  0  0  0
 39 70  1  0  0  0  0
 39 71  1  0  0  0  0
 40 41  1  0  0  0  0
 40 72  1  0  0  0  0
 40 73  1  0  0  0  0
 41 45  1  0  0  0  0
 42 79  1  0  0  0  0
 42 80  1  0  0  0  0
 42 81  1  0  0  0  0
 43 76  1  0  0  0  0
 43 77  1  0  0  0  0
 43 78  1  0  0  0  0
 44 82  1  0  0  0  0
 44 83  1  0  0  0  0
 44 84  1  0  0  0  0
 45 74  1  0  0  0  0
 45 75  1  0  0  0  0
 46 47  2  0  0  0  0
 46 51  1  0  0  0  0
 47 48  1  0  0  0  0
 47 67  1  0  0  0  0
 48 49  2  0  0  0  0
 48 66  1  0  0  0  0
 49 50  1  0  0  0  0
 49 65  1  0  0  0  0
 50 51  2  0  0  0  0
 50 64  1  0  0  0  0
 51 63  1  0  0  0  0
 52 53  2  0  0  0  0
 52 57  1  0  0  0  0
 53 54  1  0  0  0  0
 53 62  1  0  0  0  0
 54 55  2  0  0  0  0
 54 61  1  0  0  0  0
 55 56  1  0  0  0  0
 55 60  1  0  0  0  0
 56 57  2  0  0  0  0
 56 59  1  0  0  0  0
 57 58  1  0  0  0  0
 97 98  2  0  0  0  0
 97190  1  0  0  0  0
 98 99  1  0  0  0  0
 98191  1  0  0  0  0
 99100  2  0  0  0  0
 99122  1  0  0  0  0
100101  1  0  0  0  0
100192  1  0  0  0  0
101103  1  0  0  0  0
102 97  1  0  0  0  0
102101  2  0  0  0  0
103105  1  0  0  0  0
103104  2  0  0  0  0
104131  1  0  0  0  0
105106  2  0  0  0  0
105109  1  0  0  0  0
106133  1  0  0  0  0
106107  1  0  0  0  0
107108  2  0  0  0  0
107186  1  0  0  0  0
108104  1  0  0  0  0
108187  1  0  0  0  0
109110  2  0  0  0  0
110133  1  0  0  0  0
110114  1  0  0  0  0
111112  2  0  0  0  0
111115  1  0  0  0  0
111109  1  0  0  0  0
113114  2  0  0  0  0
113112  1  0  0  0  0
113184  1  0  0  0  0
114185  1  0  0  0  0
115116  2  0  0  0  0
116117  1  0  0  0  0
117118  2  0  0  0  0
117182  1  0  0  0  0
118112  1  0  0  0  0
118183  1  0  0  0  0
119121  1  0  0  0  0
119129  2  0  0  0  0
119130  1  0  0  0  0
120116  1  0  0  0  0
120165  1  0  0  0  0
121123  1  0  0  0  0
123124  1  0  0  0  0
124142  1  0  0  0  0
124125  1  0  0  0  0
125126  1  0  0  0  0
125128  2  0  0  0  0
126148  1  0  0  0  0
126127  1  0  0  0  0
127121  2  0  0  0  0
129115  1  0  0  0  0
129181  1  0  0  0  0
130120  2  0  0  0  0
130164  1  0  0  0  0
131132  2  0  0  0  0
131188  1  0  0  0  0
132102  1  0  0  0  0
132189  1  0  0  0  0
133141  1  0  0  0  0
134135  1  0  0  0  0
134138  1  0  0  0  0
134139  1  0  0  0  0
134140  1  0  0  0  0
135136  1  0  0  0  0
135166  1  0  0  0  0
135167  1  0  0  0  0
136137  1  0  0  0  0
136168  1  0  0  0  0
136169  1  0  0  0  0
137141  1  0  0  0  0
138175  1  0  0  0  0
138176  1  0  0  0  0
138177  1  0  0  0  0
139172  1  0  0  0  0
139173  1  0  0  0  0
139174  1  0  0  0  0
140178  1  0  0  0  0
140179  1  0  0  0  0
140180  1  0  0  0  0
141170  1  0  0  0  0
141171  1  0  0  0  0
142143  2  0  0  0  0
142147  1  0  0  0  0
143144  1  0  0  0  0
143163  1  0  0  0  0
144145  2  0  0  0  0
144162  1  0  0  0  0
145146  1  0  0  0  0
145161  1  0  0  0  0
146147  2  0  0  0  0
146160  1  0  0  0  0
147159  1  0  0  0  0
148149  2  0  0  0  0
148153  1  0  0  0  0
149150  1  0  0  0  0
149158  1  0  0  0  0
150151  2  0  0  0  0
150157  1  0  0  0  0
151152  1  0  0  0  0
151156  1  0  0  0  0
152153  2  0  0  0  0
152155  1  0  0  0  0
153154  1  0  0  0  0
M  END
