 xtb: 6.7.1 (edcfbbe)
          03032512403D

218240  0     0  0            999 V2000
    2.1551    2.1676    1.8509 C   0  0  0  0  0  0  0  0  0  0  0  0
    2.1261    0.7849    1.7014 C   0  0  0  0  0  0  0  0  0  0  0  0
    3.2183    0.0641    1.1748 C   0  0  0  0  0  0  0  0  0  0  0  0
    4.3707    0.8475    0.8138 C   0  0  0  0  0  0  0  0  0  0  0  0
    4.3992    2.2590    1.0276 C   0  0  0  0  0  0  0  0  0  0  0  0
    3.3026    2.8657    1.5456 C   0  0  0  0  0  0  0  0  0  0  0  0
    3.2487   -1.3787    1.0531 C   0  0  0  0  0  0  0  0  0  0  0  0
    4.4786   -1.8703    0.5401 C   0  0  0  0  0  0  0  0  0  0  0  0
    5.5332   -0.9916    0.1392 C   0  0  0  0  0  0  0  0  0  0  0  0
    5.4635    0.3238    0.2773 N   0  0  0  0  0  0  0  0  0  0  0  0
    2.2837   -2.3632    1.5189 C   0  0  0  0  0  0  0  0  0  0  0  0
    2.8700   -3.6704    1.7386 C   0  0  0  0  0  0  0  0  0  0  0  0
    3.9431   -4.1128    1.1094 N   0  0  0  0  0  0  0  0  0  0  0  0
    4.7301   -3.2712    0.4708 C   0  0  0  0  0  0  0  0  0  0  0  0
    5.9190   -3.7780   -0.1075 C   0  0  0  0  0  0  0  0  0  0  0  0
    6.8758   -2.8853   -0.5078 C   0  0  0  0  0  0  0  0  0  0  0  0
    6.7320   -1.5270   -0.3968 C   0  0  0  0  0  0  0  0  0  0  0  0
    0.8623   -2.3516    1.8334 C   0  0  0  0  0  0  0  0  0  0  0  0
    0.4108   -3.2482    2.8187 C   0  0  0  0  0  0  0  0  0  0  0  0
    1.2085   -4.2533    3.3200 C   0  0  0  0  0  0  0  0  0  0  0  0
    2.3596   -4.5924    2.6950 C   0  0  0  0  0  0  0  0  0  0  0  0
    1.0496    0.1332    2.0740 O   0  0  0  0  0  0  0  0  0  0  0  0
   -2.8059   -0.5485    2.9897 C   0  0  0  0  0  0  0  0  0  0  0  0
   -2.4083    0.2508    1.9208 C   0  0  0  0  0  0  0  0  0  0  0  0
   -3.3248    0.6160    0.9036 C   0  0  0  0  0  0  0  0  0  0  0  0
   -4.6460    0.0581    1.0068 C   0  0  0  0  0  0  0  0  0  0  0  0
   -4.9913   -0.8480    2.0533 C   0  0  0  0  0  0  0  0  0  0  0  0
   -4.0732   -1.0841    3.0208 C   0  0  0  0  0  0  0  0  0  0  0  0
   -3.0582    1.5913   -0.1267 C   0  0  0  0  0  0  0  0  0  0  0  0
   -4.2254    2.0776   -0.7634 C   0  0  0  0  0  0  0  0  0  0  0  0
   -5.4828    1.4160   -0.6079 C   0  0  0  0  0  0  0  0  0  0  0  0
   -5.6415    0.3680    0.1855 N   0  0  0  0  0  0  0  0  0  0  0  0
   -1.8044    2.2191   -0.5074 C   0  0  0  0  0  0  0  0  0  0  0  0
   -1.9415    3.5158   -1.1376 C   0  0  0  0  0  0  0  0  0  0  0  0
   -3.0849    4.0140   -1.5818 N   0  0  0  0  0  0  0  0  0  0  0  0
   -4.1941    3.3027   -1.4941 C   0  0  0  0  0  0  0  0  0  0  0  0
   -5.3809    3.8380   -2.0486 C   0  0  0  0  0  0  0  0  0  0  0  0
   -6.5491    3.1390   -1.8978 C   0  0  0  0  0  0  0  0  0  0  0  0
   -6.6376    1.9423   -1.2383 C   0  0  0  0  0  0  0  0  0  0  0  0
   -0.4763    1.6874   -0.5000 C   0  0  0  0  0  0  0  0  0  0  0  0
    0.5853    2.4922   -0.9375 C   0  0  0  0  0  0  0  0  0  0  0  0
    0.4146    3.7809   -1.3844 C   0  0  0  0  0  0  0  0  0  0  0  0
   -0.8210    4.3245   -1.4919 C   0  0  0  0  0  0  0  0  0  0  0  0
   -1.1543    0.6487    1.9219 O   0  0  0  0  0  0  0  0  0  0  0  0
   -0.1063   -0.1123    1.2234 B   0  0  0  0  0  0  0  0  0  0  0  0
   -0.1293   -1.6393    1.2041 N   0  0  0  0  0  0  0  0  0  0  0  0
   -1.0200   -3.6288    0.0146 C   0  0  0  0  0  0  0  0  0  0  0  0
   -1.3294   -2.3638    0.8142 C   0  0  0  0  0  0  0  0  0  0  0  0
   -0.1425    0.3746   -0.2226 N   0  0  0  0  0  0  0  0  0  0  0  0
    0.2695   -0.1307   -2.6127 C   0  0  0  0  0  0  0  0  0  0  0  0
    0.7464   -0.2799   -1.1716 C   0  0  0  0  0  0  0  0  0  0  0  0
   -8.1049    3.8858   -2.5538 S   0  0  0  0  0  0  0  0  0  0  0  0
   -8.6034    2.4230   -3.1623 F   0  0  0  0  0  0  0  0  0  0  0  0
   -7.3860    4.2305   -4.0078 F   0  0  0  0  0  0  0  0  0  0  0  0
   -9.4631    4.5104   -3.1521 F   0  0  0  0  0  0  0  0  0  0  0  0
   -8.9312    3.5725   -1.1615 F   0  0  0  0  0  0  0  0  0  0  0  0
   -7.7187    5.3910   -2.0184 F   0  0  0  0  0  0  0  0  0  0  0  0
    1.9144    4.5614   -2.1487 S   0  0  0  0  0  0  0  0  0  0  0  0
    2.9558    3.7713   -1.1103 F   0  0  0  0  0  0  0  0  0  0  0  0
    1.8680    5.9462   -1.2893 F   0  0  0  0  0  0  0  0  0  0  0  0
    3.2200    5.1271   -2.8984 F   0  0  0  0  0  0  0  0  0  0  0  0
    0.9986    5.2920   -3.3259 F   0  0  0  0  0  0  0  0  0  0  0  0
    2.0347    3.2168   -3.1523 F   0  0  0  0  0  0  0  0  0  0  0  0
   -4.3610   -2.2878    4.4000 S   0  0  0  0  0  0  0  0  0  0  0  0
   -5.2725   -3.2953    3.4606 F   0  0  0  0  0  0  0  0  0  0  0  0
   -5.7184   -1.5214    4.9486 F   0  0  0  0  0  0  0  0  0  0  0  0
   -4.5247   -3.3400    5.6113 F   0  0  0  0  0  0  0  0  0  0  0  0
   -3.4273   -1.3833    5.4858 F   0  0  0  0  0  0  0  0  0  0  0  0
   -2.9754   -3.1246    3.9550 F   0  0  0  0  0  0  0  0  0  0  0  0
    0.7884   -4.9934    4.9678 S   0  0  0  0  0  0  0  0  0  0  0  0
   -0.1500   -6.2171    4.3846 F   0  0  0  0  0  0  0  0  0  0  0  0
   -0.5533   -4.0265    5.1868 F   0  0  0  0  0  0  0  0  0  0  0  0
    0.4954   -5.5195    6.4824 F   0  0  0  0  0  0  0  0  0  0  0  0
    1.7019   -3.7655    5.6983 F   0  0  0  0  0  0  0  0  0  0  0  0
    2.1214   -5.9787    4.9994 F   0  0  0  0  0  0  0  0  0  0  0  0
    8.4695   -3.5540   -1.1578 S   0  0  0  0  0  0  0  0  0  0  0  0
    8.5561   -4.7242   -0.0048 F   0  0  0  0  0  0  0  0  0  0  0  0
    9.3675   -2.5348   -0.2266 F   0  0  0  0  0  0  0  0  0  0  0  0
    9.8459   -4.1316   -1.7607 F   0  0  0  0  0  0  0  0  0  0  0  0
    7.6686   -4.6140   -2.1529 F   0  0  0  0  0  0  0  0  0  0  0  0
    8.4898   -2.4378   -2.3841 F   0  0  0  0  0  0  0  0  0  0  0  0
    3.2092    4.6813    1.8719 S   0  0  0  0  0  0  0  0  0  0  0  0
    4.5073    4.6900    2.8807 F   0  0  0  0  0  0  0  0  0  0  0  0
    3.0432    6.2670    2.1083 F   0  0  0  0  0  0  0  0  0  0  0  0
    1.8137    4.7553    0.9204 F   0  0  0  0  0  0  0  0  0  0  0  0
    4.2099    5.0726    0.6250 F   0  0  0  0  0  0  0  0  0  0  0  0
    2.1810    4.5076    3.1760 F   0  0  0  0  0  0  0  0  0  0  0  0
   -1.9533   -4.0635   -0.3305 H   0  0  0  0  0  0  0  0  0  0  0  0
   -0.5043   -4.3652    0.6234 H   0  0  0  0  0  0  0  0  0  0  0  0
   -0.4055   -3.3969   -0.8515 H   0  0  0  0  0  0  0  0  0  0  0  0
   -1.8945   -1.6716    0.1879 H   0  0  0  0  0  0  0  0  0  0  0  0
   -1.9557   -2.6314    1.6712 H   0  0  0  0  0  0  0  0  0  0  0  0
    0.7429   -1.3330   -0.8848 H   0  0  0  0  0  0  0  0  0  0  0  0
    1.7823    0.0726   -1.0919 H   0  0  0  0  0  0  0  0  0  0  0  0
   -0.7843   -0.3858   -2.6882 H   0  0  0  0  0  0  0  0  0  0  0  0
    0.8373   -0.8045   -3.2480 H   0  0  0  0  0  0  0  0  0  0  0  0
    0.4152    0.8815   -2.9788 H   0  0  0  0  0  0  0  0  0  0  0  0
   -5.9820   -1.2658    2.0585 H   0  0  0  0  0  0  0  0  0  0  0  0
   -7.5751    1.4272   -1.1135 H   0  0  0  0  0  0  0  0  0  0  0  0
   -5.3450    4.7978   -2.5350 H   0  0  0  0  0  0  0  0  0  0  0  0
    5.2944    2.7942    0.7636 H   0  0  0  0  0  0  0  0  0  0  0  0
    6.0780   -4.8422   -0.1322 H   0  0  0  0  0  0  0  0  0  0  0  0
    7.5148   -0.8454   -0.6856 H   0  0  0  0  0  0  0  0  0  0  0  0
    2.9535   -5.4614    2.9068 H   0  0  0  0  0  0  0  0  0  0  0  0
   -1.0137    5.2914   -1.9228 H   0  0  0  0  0  0  0  0  0  0  0  0
   -0.5981   -3.1389    3.1781 H   0  0  0  0  0  0  0  0  0  0  0  0
    1.2801    2.6576    2.2379 H   0  0  0  0  0  0  0  0  0  0  0  0
    1.5789    2.0844   -0.9291 H   0  0  0  0  0  0  0  0  0  0  0  0
   -2.0731   -0.7771    3.7420 H   0  0  0  0  0  0  0  0  0  0  0  0
    2.0270    1.2399   10.4009 C   0  0  0  0  0  0  0  0  0  0  0  0
    1.7384   -0.0098    9.8498 C   0  0  0  0  0  0  0  0  0  0  0  0
    2.7243   -0.7437    9.1502 C   0  0  0  0  0  0  0  0  0  0  0  0
    3.9964   -0.0886    8.9705 C   0  0  0  0  0  0  0  0  0  0  0  0
    4.2867    1.1478    9.6069 C   0  0  0  0  0  0  0  0  0  0  0  0
    3.2903    1.7843   10.2736 C   0  0  0  0  0  0  0  0  0  0  0  0
    2.5801   -2.0940    8.6549 C   0  0  0  0  0  0  0  0  0  0  0  0
    3.6597   -2.5271    7.8498 C   0  0  0  0  0  0  0  0  0  0  0  0
    4.7016   -1.6318    7.4568 C   0  0  0  0  0  0  0  0  0  0  0  0
    4.9213   -0.5176    8.1259 N   0  0  0  0  0  0  0  0  0  0  0  0
    1.5916   -3.1012    8.9780 C   0  0  0  0  0  0  0  0  0  0  0  0
    2.1216   -4.4523    8.8978 C   0  0  0  0  0  0  0  0  0  0  0  0
    3.1300   -4.8047    8.1194 N   0  0  0  0  0  0  0  0  0  0  0  0
    3.7752   -3.8817    7.4277 C   0  0  0  0  0  0  0  0  0  0  0  0
    4.6162   -4.2134    6.3401 C   0  0  0  0  0  0  0  0  0  0  0  0
    5.3612   -3.2046    5.7789 C   0  0  0  0  0  0  0  0  0  0  0  0
    5.4990   -1.9606    6.3363 C   0  0  0  0  0  0  0  0  0  0  0  0
    0.1951   -3.0448    9.3505 C   0  0  0  0  0  0  0  0  0  0  0  0
   -0.3048   -4.1060   10.1334 C   0  0  0  0  0  0  0  0  0  0  0  0
    0.3826   -5.2877   10.2850 C   0  0  0  0  0  0  0  0  0  0  0  0
    1.5347   -5.5336    9.6119 C   0  0  0  0  0  0  0  0  0  0  0  0
    0.5093   -0.4670    9.9631 O   0  0  0  0  0  0  0  0  0  0  0  0
   -3.6601   -0.3344    9.5540 C   0  0  0  0  0  0  0  0  0  0  0  0
   -2.7145    0.2681    8.7085 C   0  0  0  0  0  0  0  0  0  0  0  0
   -3.1188    0.8362    7.4662 C   0  0  0  0  0  0  0  0  0  0  0  0
   -4.5104    0.6596    7.1207 C   0  0  0  0  0  0  0  0  0  0  0  0
   -5.3894   -0.1246    7.9177 C   0  0  0  0  0  0  0  0  0  0  0  0
   -4.9478   -0.5635    9.1190 C   0  0  0  0  0  0  0  0  0  0  0  0
   -2.3172    1.6547    6.5808 C   0  0  0  0  0  0  0  0  0  0  0  0
   -3.0483    2.3756    5.6032 C   0  0  0  0  0  0  0  0  0  0  0  0
   -4.4209    2.0788    5.3406 C   0  0  0  0  0  0  0  0  0  0  0  0
   -5.0958    1.2064    6.0683 N   0  0  0  0  0  0  0  0  0  0  0  0
   -0.8830    1.8974    6.5750 C   0  0  0  0  0  0  0  0  0  0  0  0
   -0.4348    3.0850    5.8783 C   0  0  0  0  0  0  0  0  0  0  0  0
   -1.2154    3.8432    5.1217 N   0  0  0  0  0  0  0  0  0  0  0  0
   -2.4483    3.4441    4.8709 C   0  0  0  0  0  0  0  0  0  0  0  0
   -3.1712    4.1149    3.8557 C   0  0  0  0  0  0  0  0  0  0  0  0
   -4.4444    3.6993    3.5824 C   0  0  0  0  0  0  0  0  0  0  0  0
   -5.1023    2.7243    4.2810 C   0  0  0  0  0  0  0  0  0  0  0  0
    0.1554    1.0660    7.0719 C   0  0  0  0  0  0  0  0  0  0  0  0
    1.4843    1.4693    6.9989 C   0  0  0  0  0  0  0  0  0  0  0  0
    1.8535    2.6224    6.3382 C   0  0  0  0  0  0  0  0  0  0  0  0
    0.9360    3.4558    5.8008 C   0  0  0  0  0  0  0  0  0  0  0  0
   -1.4802    0.3070    9.1711 O   0  0  0  0  0  0  0  0  0  0  0  0
   -0.4080   -0.6569    8.8579 B   0  0  0  0  0  0  0  0  0  0  0  0
   -0.7298   -2.1542    8.8970 N   0  0  0  0  0  0  0  0  0  0  0  0
   -2.1669   -4.0663    8.0206 C   0  0  0  0  0  0  0  0  0  0  0  0
   -2.0527   -2.6406    8.5557 C   0  0  0  0  0  0  0  0  0  0  0  0
    0.0150   -0.2776    7.4452 N   0  0  0  0  0  0  0  0  0  0  0  0
    0.7950   -0.8094    5.1438 C   0  0  0  0  0  0  0  0  0  0  0  0
   -0.0667   -1.1999    6.3387 C   0  0  0  0  0  0  0  0  0  0  0  0
   -5.2732    4.4136    2.0961 S   0  0  0  0  0  0  0  0  0  0  0  0
   -5.7907    2.8858    1.6374 F   0  0  0  0  0  0  0  0  0  0  0  0
   -3.8738    4.1651    1.2005 F   0  0  0  0  0  0  0  0  0  0  0  0
   -5.9405    4.9313    0.7171 F   0  0  0  0  0  0  0  0  0  0  0  0
   -6.7121    4.6707    2.8509 F   0  0  0  0  0  0  0  0  0  0  0  0
   -4.7985    5.9604    2.4006 F   0  0  0  0  0  0  0  0  0  0  0  0
    3.6494    2.8243    5.9441 S   0  0  0  0  0  0  0  0  0  0  0  0
    3.9074    1.1509    6.0156 F   0  0  0  0  0  0  0  0  0  0  0  0
    4.0523    2.9025    7.5515 F   0  0  0  0  0  0  0  0  0  0  0  0
    5.2162    2.9289    5.5988 F   0  0  0  0  0  0  0  0  0  0  0  0
    3.5577    4.4500    5.8130 F   0  0  0  0  0  0  0  0  0  0  0  0
    3.3705    2.5904    4.3114 F   0  0  0  0  0  0  0  0  0  0  0  0
   -6.0431   -1.5930   10.1870 S   0  0  0  0  0  0  0  0  0  0  0  0
   -7.3490   -0.6111    9.9424 F   0  0  0  0  0  0  0  0  0  0  0  0
   -5.6354   -0.7304   11.5436 F   0  0  0  0  0  0  0  0  0  0  0  0
   -6.9725   -2.5062   11.1290 F   0  0  0  0  0  0  0  0  0  0  0  0
   -4.7938   -2.6507   10.5108 F   0  0  0  0  0  0  0  0  0  0  0  0
   -6.5033   -2.5355    8.9134 F   0  0  0  0  0  0  0  0  0  0  0  0
   -0.3806   -6.6050   11.3225 S   0  0  0  0  0  0  0  0  0  0  0  0
   -1.8711   -6.3734   10.6396 F   0  0  0  0  0  0  0  0  0  0  0  0
   -0.7652   -5.5134   12.5084 F   0  0  0  0  0  0  0  0  0  0  0  0
   -1.0448   -7.7424   12.2442 F   0  0  0  0  0  0  0  0  0  0  0  0
    1.0590   -6.9205   12.0759 F   0  0  0  0  0  0  0  0  0  0  0  0
   -0.0510   -7.7810   10.2130 F   0  0  0  0  0  0  0  0  0  0  0  0
    6.1496   -3.4759    4.1206 S   0  0  0  0  0  0  0  0  0  0  0  0
    5.1068   -4.7153    3.7368 F   0  0  0  0  0  0  0  0  0  0  0  0
    7.2473   -4.5738    4.6690 F   0  0  0  0  0  0  0  0  0  0  0  0
    6.7506   -3.6652    2.6229 F   0  0  0  0  0  0  0  0  0  0  0  0
    5.0527   -2.3999    3.4267 F   0  0  0  0  0  0  0  0  0  0  0  0
    7.2463   -2.2533    4.2903 F   0  0  0  0  0  0  0  0  0  0  0  0
    3.5392    3.5285   10.8436 S   0  0  0  0  0  0  0  0  0  0  0  0
    4.5186    3.0684   12.0988 F   0  0  0  0  0  0  0  0  0  0  0  0
    3.6963    5.0586   11.3281 F   0  0  0  0  0  0  0  0  0  0  0  0
    2.5294    4.0655    9.6327 F   0  0  0  0  0  0  0  0  0  0  0  0
    4.8754    3.7818    9.9271 F   0  0  0  0  0  0  0  0  0  0  0  0
    2.2360    3.4641   11.8754 F   0  0  0  0  0  0  0  0  0  0  0  0
   -3.0751   -4.1208    7.4276 H   0  0  0  0  0  0  0  0  0  0  0  0
   -2.2387   -4.8166    8.7987 H   0  0  0  0  0  0  0  0  0  0  0  0
   -1.3305   -4.3066    7.3754 H   0  0  0  0  0  0  0  0  0  0  0  0
   -2.4162   -1.9671    7.7794 H   0  0  0  0  0  0  0  0  0  0  0  0
   -2.7259   -2.5349    9.4166 H   0  0  0  0  0  0  0  0  0  0  0  0
   -1.1089   -1.3152    6.0095 H   0  0  0  0  0  0  0  0  0  0  0  0
    0.2468   -2.1742    6.7170 H   0  0  0  0  0  0  0  0  0  0  0  0
    0.4077    0.0521    4.6062 H   0  0  0  0  0  0  0  0  0  0  0  0
    0.8217   -1.6511    4.4604 H   0  0  0  0  0  0  0  0  0  0  0  0
    1.8155   -0.5944    5.4488 H   0  0  0  0  0  0  0  0  0  0  0  0
   -6.3831   -0.3024    7.5462 H   0  0  0  0  0  0  0  0  0  0  0  0
   -6.1164    2.4383    4.0656 H   0  0  0  0  0  0  0  0  0  0  0  0
   -2.6871    4.9065    3.3114 H   0  0  0  0  0  0  0  0  0  0  0  0
    5.2562    1.5816    9.4411 H   0  0  0  0  0  0  0  0  0  0  0  0
    4.5921   -5.2172    5.9538 H   0  0  0  0  0  0  0  0  0  0  0  0
    6.1419   -1.1970    5.9349 H   0  0  0  0  0  0  0  0  0  0  0  0
    2.0002   -6.5014    9.5589 H   0  0  0  0  0  0  0  0  0  0  0  0
    1.1901    4.3241    5.2183 H   0  0  0  0  0  0  0  0  0  0  0  0
   -1.2506   -3.9737   10.6322 H   0  0  0  0  0  0  0  0  0  0  0  0
    1.2285    1.7652   10.8946 H   0  0  0  0  0  0  0  0  0  0  0  0
    2.2388    0.8075    7.3751 H   0  0  0  0  0  0  0  0  0  0  0  0
   -3.3411   -0.6322   10.5388 H   0  0  0  0  0  0  0  0  0  0  0  0
  1  2  4  0  0  0  0
  2  3  4  0  0  0  0
  3  4  1  0  0  0  0
  4  5  4  0  0  0  0
  1  6  4  0  0  0  0
  5  6  2  0  0  0  0
  3  7  4  0  0  0  0
  7  8  4  0  0  0  0
  8  9  1  0  0  0  0
  4 10  4  0  0  0  0
  9 10  4  0  0  0  0
  7 11  4  0  0  0  0
 11 12  1  0  0  0  0
 12 13  4  0  0  0  0
  8 14  1  0  0  0  0
 13 14  4  0  0  0  0
 14 15  4  0  0  0  0
 15 16  4  0  0  0  0
  9 17  4  0  0  0  0
 16 17  4  0  0  0  0
 11 18  4  0  0  0  0
 18 19  4  0  0  0  0
 19 20  4  0  0  0  0
 12 21  1  0  0  0  0
 20 21  2  0  0  0  0
  2 22  1  0  0  0  0
 23 24  4  0  0  0  0
 24 25  4  0  0  0  0
 25 26  4  0  0  0  0
 26 27  4  0  0  0  0
 23 28  4  0  0  0  0
 27 28  2  0  0  0  0
 25 29  4  0  0  0  0
 29 30  4  0  0  0  0
 30 31  1  0  0  0  0
 26 32  4  0  0  0  0
 31 32  4  0  0  0  0
 29 33  4  0  0  0  0
 33 34  1  0  0  0  0
 34 35  4  0  0  0  0
 30 36  1  0  0  0  0
 35 36  4  0  0  0  0
 36 37  4  0  0  0  0
 37 38  4  0  0  0  0
 31 39  4  0  0  0  0
 38 39  4  0  0  0  0
 33 40  4  0  0  0  0
 40 41  4  0  0  0  0
 41 42  4  0  0  0  0
 34 43  4  0  0  0  0
 42 43  2  0  0  0  0
 24 44  1  0  0  0  0
 22 45  1  0  0  0  0
 44 45  1  0  0  0  0
 18 46  1  0  0  0  0
 45 46  1  0  0  0  0
 46 48  1  0  0  0  0
 47 48  1  0  0  0  0
 40 49  1  0  0  0  0
 45 49  1  0  0  0  0
 49 51  1  0  0  0  0
 50 51  1  0  0  0  0
 38 52  1  0  0  0  0
 52 53  1  0  0  0  0
 52 54  1  0  0  0  0
 52 55  1  0  0  0  0
 52 56  1  0  0  0  0
 52 57  1  0  0  0  0
 42 58  1  0  0  0  0
 58 59  1  0  0  0  0
 58 60  1  0  0  0  0
 58 61  1  0  0  0  0
 58 62  1  0  0  0  0
 58 63  1  0  0  0  0
 28 64  1  0  0  0  0
 64 65  1  0  0  0  0
 64 66  1  0  0  0  0
 64 67  1  0  0  0  0
 64 68  1  0  0  0  0
 64 69  1  0  0  0  0
 20 70  1  0  0  0  0
 70 71  1  0  0  0  0
 70 72  1  0  0  0  0
 70 73  1  0  0  0  0
 70 74  1  0  0  0  0
 70 75  1  0  0  0  0
 16 76  1  0  0  0  0
 76 77  1  0  0  0  0
 76 78  1  0  0  0  0
 76 79  1  0  0  0  0
 76 80  1  0  0  0  0
 76 81  1  0  0  0  0
  6 82  1  0  0  0  0
 82 83  1  0  0  0  0
 82 84  1  0  0  0  0
 82 85  1  0  0  0  0
 82 86  1  0  0  0  0
 82 87  1  0  0  0  0
 47 88  1  0  0  0  0
 47 89  1  0  0  0  0
 47 90  1  0  0  0  0
 48 91  1  0  0  0  0
 48 92  1  0  0  0  0
 51 93  1  0  0  0  0
 51 94  1  0  0  0  0
 50 95  1  0  0  0  0
 50 96  1  0  0  0  0
 50 97  1  0  0  0  0
 27 98  1  0  0  0  0
 39 99  1  0  0  0  0
 37100  1  0  0  0  0
  5101  1  0  0  0  0
 15102  1  0  0  0  0
 17103  1  0  0  0  0
 21104  1  0  0  0  0
 43105  1  0  0  0  0
 19106  1  0  0  0  0
  1107  1  0  0  0  0
 41108  1  0  0  0  0
 23109  1  0  0  0  0
110111  4  0  0  0  0
111112  4  0  0  0  0
112113  1  0  0  0  0
113114  4  0  0  0  0
110115  4  0  0  0  0
114115  2  0  0  0  0
112116  4  0  0  0  0
116117  4  0  0  0  0
117118  1  0  0  0  0
113119  4  0  0  0  0
118119  4  0  0  0  0
116120  4  0  0  0  0
120121  1  0  0  0  0
121122  4  0  0  0  0
117123  1  0  0  0  0
122123  4  0  0  0  0
123124  4  0  0  0  0
124125  4  0  0  0  0
118126  4  0  0  0  0
125126  4  0  0  0  0
120127  4  0  0  0  0
127128  4  0  0  0  0
128129  4  0  0  0  0
121130  1  0  0  0  0
129130  2  0  0  0  0
111131  1  0  0  0  0
132133  4  0  0  0  0
133134  4  0  0  0  0
134135  1  0  0  0  0
135136  4  0  0  0  0
132137  4  0  0  0  0
136137  2  0  0  0  0
134138  4  0  0  0  0
138139  4  0  0  0  0
139140  1  0  0  0  0
135141  4  0  0  0  0
140141  4  0  0  0  0
138142  1  0  0  0  0
142143  1  0  0  0  0
143144  4  0  0  0  0
139145  1  0  0  0  0
144145  4  0  0  0  0
145146  4  0  0  0  0
146147  4  0  0  0  0
140148  4  0  0  0  0
147148  4  0  0  0  0
142149  4  0  0  0  0
149150  4  0  0  0  0
150151  4  0  0  0  0
143152  4  0  0  0  0
151152  2  0  0  0  0
133153  1  0  0  0  0
131154  1  0  0  0  0
153154  1  0  0  0  0
127155  4  0  0  0  0
154155  1  0  0  0  0
155157  1  0  0  0  0
156157  1  0  0  0  0
149158  1  0  0  0  0
154158  1  0  0  0  0
158160  1  0  0  0  0
159160  1  0  0  0  0
147161  1  0  0  0  0
161162  1  0  0  0  0
161163  1  0  0  0  0
161164  1  0  0  0  0
161165  1  0  0  0  0
161166  1  0  0  0  0
151167  1  0  0  0  0
167168  1  0  0  0  0
167169  1  0  0  0  0
167170  1  0  0  0  0
167171  1  0  0  0  0
167172  1  0  0  0  0
137173  1  0  0  0  0
173174  1  0  0  0  0
173175  1  0  0  0  0
173176  1  0  0  0  0
173177  1  0  0  0  0
173178  1  0  0  0  0
129179  1  0  0  0  0
179180  1  0  0  0  0
179181  1  0  0  0  0
179182  1  0  0  0  0
179183  1  0  0  0  0
179184  1  0  0  0  0
125185  1  0  0  0  0
185186  1  0  0  0  0
185187  1  0  0  0  0
185188  1  0  0  0  0
185189  1  0  0  0  0
185190  1  0  0  0  0
115191  1  0  0  0  0
191192  1  0  0  0  0
191193  1  0  0  0  0
191194  1  0  0  0  0
191195  1  0  0  0  0
191196  1  0  0  0  0
156197  1  0  0  0  0
156198  1  0  0  0  0
156199  1  0  0  0  0
157200  1  0  0  0  0
157201  1  0  0  0  0
160202  1  0  0  0  0
160203  1  0  0  0  0
159204  1  0  0  0  0
159205  1  0  0  0  0
159206  1  0  0  0  0
136207  1  0  0  0  0
148208  1  0  0  0  0
146209  1  0  0  0  0
114210  1  0  0  0  0
124211  1  0  0  0  0
126212  1  0  0  0  0
130213  1  0  0  0  0
152214  1  0  0  0  0
128215  1  0  0  0  0
110216  1  0  0  0  0
150217  1  0  0  0  0
132218  1  0  0  0  0
M  CHG  1   8   1
M  CHG  1  45  -1
M  CHG  1 117   1
M  CHG  1 154  -1
M  END
