 energy: -145.584005640206 gnorm: 0.000186817162 xtb: 6.7.1 (edcfbbe)
          03042513033D

 55 59  0     0  0            999 V2000
   -2.3025    2.2012   -1.6151 C   0  0  0  0  0  0  0  0  0  0  0  0
   -2.0666    0.9763   -0.9846 C   0  0  0  0  0  0  0  0  0  0  0  0
   -1.0498    0.9119    0.0076 C   0  0  0  0  0  0  0  0  0  0  0  0
   -0.1197    2.0109    0.1103 C   0  0  0  0  0  0  0  0  0  0  0  0
   -0.4058    3.2467   -0.5430 C   0  0  0  0  0  0  0  0  0  0  0  0
   -1.4981    3.3011   -1.3469 C   0  0  0  0  0  0  0  0  0  0  0  0
   -0.7982   -0.2229    0.8396 C   0  0  0  0  0  0  0  0  0  0  0  0
    0.5109   -0.3459    1.3491 C   0  0  0  0  0  0  0  0  0  0  0  0
    1.4149    0.7509    1.2583 C   0  0  0  0  0  0  0  0  0  0  0  0
    1.0431    1.9117    0.7282 N   0  0  0  0  0  0  0  0  0  0  0  0
   -1.7223   -1.2475    1.2128 C   0  0  0  0  0  0  0  0  0  0  0  0
   -1.1583   -2.4869    1.6915 C   0  0  0  0  0  0  0  0  0  0  0  0
    0.1135   -2.6164    2.0220 N   0  0  0  0  0  0  0  0  0  0  0  0
    0.9266   -1.5671    1.9528 C   0  0  0  0  0  0  0  0  0  0  0  0
    2.2573   -1.6798    2.4266 C   0  0  0  0  0  0  0  0  0  0  0  0
    3.0944   -0.5897    2.3520 C   0  0  0  0  0  0  0  0  0  0  0  0
    2.7149    0.6154    1.8056 C   0  0  0  0  0  0  0  0  0  0  0  0
   -3.1344   -1.0845    1.2573 C   0  0  0  0  0  0  0  0  0  0  0  0
   -3.9262   -2.2136    1.4849 C   0  0  0  0  0  0  0  0  0  0  0  0
   -3.3419   -3.4440    1.7563 C   0  0  0  0  0  0  0  0  0  0  0  0
   -2.0035   -3.6172    1.9016 C   0  0  0  0  0  0  0  0  0  0  0  0
   -3.6196    0.1435    1.1238 O   0  0  0  0  0  0  0  0  0  0  0  0
   -2.7057   -0.1465   -1.2885 O   0  0  0  0  0  0  0  0  0  0  0  0
    0.2669    4.0782   -0.4137 H   0  0  0  0  0  0  0  0  0  0  0  0
   -3.1130    2.3204   -2.3151 H   0  0  0  0  0  0  0  0  0  0  0  0
    3.3852    1.4624    1.7857 H   0  0  0  0  0  0  0  0  0  0  0  0
    2.5922   -2.6219    2.8359 H   0  0  0  0  0  0  0  0  0  0  0  0
   -1.5646   -4.5534    2.2041 H   0  0  0  0  0  0  0  0  0  0  0  0
   -5.0016   -2.1565    1.4490 H   0  0  0  0  0  0  0  0  0  0  0  0
   -5.0139    0.3766    1.2844 C   0  0  0  0  0  0  0  0  0  0  0  0
   -3.6405   -0.1628   -2.3609 C   0  0  0  0  0  0  0  0  0  0  0  0
   -1.9457    4.8969   -2.1856 S   0  0  0  0  0  0  0  0  0  0  0  0
   -3.5369    4.6614   -1.8020 F   0  0  0  0  0  0  0  0  0  0  0  0
   -1.7299    5.7284   -0.7874 F   0  0  0  0  0  0  0  0  0  0  0  0
   -2.3583    6.2551   -2.9020 F   0  0  0  0  0  0  0  0  0  0  0  0
   -2.1945    4.1111   -3.6149 F   0  0  0  0  0  0  0  0  0  0  0  0
   -0.3850    5.1750   -2.6005 F   0  0  0  0  0  0  0  0  0  0  0  0
   -4.4864   -4.8920    1.9662 S   0  0  0  0  0  0  0  0  0  0  0  0
   -5.5046   -3.9912    2.9010 F   0  0  0  0  0  0  0  0  0  0  0  0
   -5.3352   -4.4245    0.6262 F   0  0  0  0  0  0  0  0  0  0  0  0
   -5.4849   -6.1191    2.1246 F   0  0  0  0  0  0  0  0  0  0  0  0
   -3.5204   -5.8307    1.0288 F   0  0  0  0  0  0  0  0  0  0  0  0
   -3.6872   -5.3944    3.3055 F   0  0  0  0  0  0  0  0  0  0  0  0
    4.8299   -0.7536    3.0237 S   0  0  0  0  0  0  0  0  0  0  0  0
    5.4358    0.0084    1.7027 F   0  0  0  0  0  0  0  0  0  0  0  0
    5.0039   -2.2027    2.2741 F   0  0  0  0  0  0  0  0  0  0  0  0
    6.3047   -0.8927    3.5943 F   0  0  0  0  0  0  0  0  0  0  0  0
    4.6917    0.6923    3.7871 F   0  0  0  0  0  0  0  0  0  0  0  0
    4.2635   -1.5193    4.3598 F   0  0  0  0  0  0  0  0  0  0  0  0
   -3.9564   -1.2007   -2.4502 H   0  0  0  0  0  0  0  0  0  0  0  0
   -3.1754    0.1587   -3.2946 H   0  0  0  0  0  0  0  0  0  0  0  0
   -4.5053    0.4673   -2.1430 H   0  0  0  0  0  0  0  0  0  0  0  0
   -5.1359    1.4552    1.2015 H   0  0  0  0  0  0  0  0  0  0  0  0
   -5.3588    0.0449    2.2656 H   0  0  0  0  0  0  0  0  0  0  0  0
   -5.5919   -0.1200    0.5023 H   0  0  0  0  0  0  0  0  0  0  0  0
  1  2  2  0  0  0  0
  1 25  1  0  0  0  0
  2  3  1  0  0  0  0
  2 23  1  0  0  0  0
  3  4  2  0  0  0  0
  3  7  1  0  0  0  0
  4  5  1  0  0  0  0
  5  6  2  0  0  0  0
  5 24  1  0  0  0  0
  6 32  1  0  0  0  0
  6  1  1  0  0  0  0
  7 11  2  0  0  0  0
  8  7  1  0  0  0  0
  8  9  1  0  0  0  0
  9 10  2  0  0  0  0
 10  4  1  0  0  0  0
 11 12  1  0  0  0  0
 11 18  1  0  0  0  0
 12 13  2  0  0  0  0
 13 14  1  0  0  0  0
 14  8  1  0  0  0  0
 14 15  2  0  0  0  0
 15 16  1  0  0  0  0
 15 27  1  0  0  0  0
 16 44  1  0  0  0  0
 16 17  2  0  0  0  0
 17  9  1  0  0  0  0
 17 26  1  0  0  0  0
 18 19  2  0  0  0  0
 19 20  1  0  0  0  0
 19 29  1  0  0  0  0
 20 38  1  0  0  0  0
 20 21  2  0  0  0  0
 21 12  1  0  0  0  0
 21 28  1  0  0  0  0
 22 30  1  0  0  0  0
 22 18  1  0  0  0  0
 23 31  1  0  0  0  0
 30 53  1  0  0  0  0
 30 54  1  0  0  0  0
 30 55  1  0  0  0  0
 31 50  1  0  0  0  0
 31 51  1  0  0  0  0
 31 52  1  0  0  0  0
 32 33  1  0  0  0  0
 32 34  1  0  0  0  0
 32 35  1  0  0  0  0
 32 36  1  0  0  0  0
 32 37  1  0  0  0  0
 38 39  1  0  0  0  0
 38 40  1  0  0  0  0
 38 41  1  0  0  0  0
 38 42  1  0  0  0  0
 38 43  1  0  0  0  0
 44 45  1  0  0  0  0
 44 46  1  0  0  0  0
 44 47  1  0  0  0  0
 44 48  1  0  0  0  0
 44 49  1  0  0  0  0
M  CHG  1   1   1
M  END
