 energy: -196.159836417600 gnorm: 0.000184705308 xtb: 6.7.1 (edcfbbe)
          02242510123D

137148  0     0  0            999 V2000
   -0.8962   -2.0447    1.3203 C   0  0  0  0  0  0  0  0  0  0  0  0
   -1.3572   -0.9172    0.6448 C   0  0  0  0  0  0  0  0  0  0  0  0
   -2.5978   -0.9657   -0.0548 C   0  0  0  0  0  0  0  0  0  0  0  0
   -3.1821   -2.2754   -0.1744 C   0  0  0  0  0  0  0  0  0  0  0  0
   -2.6260   -3.4004    0.4746 C   0  0  0  0  0  0  0  0  0  0  0  0
   -1.5360   -3.2856    1.3000 C   0  0  0  0  0  0  0  0  0  0  0  0
   -3.4156    0.1399   -0.4780 C   0  0  0  0  0  0  0  0  0  0  0  0
   -4.7336   -0.1721   -0.8737 C   0  0  0  0  0  0  0  0  0  0  0  0
   -5.1180   -1.5139   -1.1352 C   0  0  0  0  0  0  0  0  0  0  0  0
   -4.3312   -2.5347   -0.8093 N   0  0  0  0  0  0  0  0  0  0  0  0
   -3.1388    1.5472   -0.3950 C   0  0  0  0  0  0  0  0  0  0  0  0
   -4.2649    2.4276   -0.2459 C   0  0  0  0  0  0  0  0  0  0  0  0
   -5.5177    2.0787   -0.5450 N   0  0  0  0  0  0  0  0  0  0  0  0
   -5.7307    0.8371   -0.9848 C   0  0  0  0  0  0  0  0  0  0  0  0
   -6.9993    0.5063   -1.4916 C   0  0  0  0  0  0  0  0  0  0  0  0
   -7.3227   -0.7868   -1.8875 C   0  0  0  0  0  0  0  0  0  0  0  0
   -6.3863   -1.7869   -1.6933 C   0  0  0  0  0  0  0  0  0  0  0  0
   -1.8784    2.1778   -0.5012 C   0  0  0  0  0  0  0  0  0  0  0  0
   -1.7310    3.4911   -0.0723 C   0  0  0  0  0  0  0  0  0  0  0  0
   -2.8082    4.2821    0.3352 C   0  0  0  0  0  0  0  0  0  0  0  0
   -4.0694    3.7596    0.1770 C   0  0  0  0  0  0  0  0  0  0  0  0
   -0.6119    0.1770    0.8259 O   0  0  0  0  0  0  0  0  0  0  0  0
   -0.8545    1.5604   -1.1025 O   0  0  0  0  0  0  0  0  0  0  0  0
    0.1032    0.8457   -0.2674 B   0  0  0  0  0  0  0  0  0  0  0  0
    1.0760   -2.3129   -1.2337 C   0  0  0  0  0  0  0  0  0  0  0  0
    1.5468   -1.0777   -0.7951 C   0  0  0  0  0  0  0  0  0  0  0  0
    2.7806   -0.9976   -0.0870 C   0  0  0  0  0  0  0  0  0  0  0  0
    3.3464   -2.2626    0.3017 C   0  0  0  0  0  0  0  0  0  0  0  0
    2.7804   -3.4894   -0.1127 C   0  0  0  0  0  0  0  0  0  0  0  0
    1.6988   -3.5314   -0.9556 C   0  0  0  0  0  0  0  0  0  0  0  0
    3.6084    0.1625    0.1122 C   0  0  0  0  0  0  0  0  0  0  0  0
    4.9184   -0.0773    0.5786 C   0  0  0  0  0  0  0  0  0  0  0  0
    5.2823   -1.3431    1.1115 C   0  0  0  0  0  0  0  0  0  0  0  0
    4.4854   -2.4012    0.9897 N   0  0  0  0  0  0  0  0  0  0  0  0
    3.3510    1.5258   -0.2607 C   0  0  0  0  0  0  0  0  0  0  0  0
    4.4909    2.3431   -0.5730 C   0  0  0  0  0  0  0  0  0  0  0  0
    5.7358    2.0480   -0.1921 N   0  0  0  0  0  0  0  0  0  0  0  0
    5.9277    0.9212    0.4945 C   0  0  0  0  0  0  0  0  0  0  0  0
    7.1913    0.6923    1.0744 C   0  0  0  0  0  0  0  0  0  0  0  0
    7.4913   -0.4937    1.7260 C   0  0  0  0  0  0  0  0  0  0  0  0
    6.5400   -1.5047    1.7256 C   0  0  0  0  0  0  0  0  0  0  0  0
    2.0989    2.1808   -0.3016 C   0  0  0  0  0  0  0  0  0  0  0  0
    1.9753    3.3793   -0.9936 C   0  0  0  0  0  0  0  0  0  0  0  0
    3.0677    4.0562   -1.5414 C   0  0  0  0  0  0  0  0  0  0  0  0
    4.3195    3.5619   -1.2628 C   0  0  0  0  0  0  0  0  0  0  0  0
    1.0606    1.7164    0.4035 O   0  0  0  0  0  0  0  0  0  0  0  0
    0.8173   -0.0339   -1.1996 O   0  0  0  0  0  0  0  0  0  0  0  0
   -1.1024   -4.3974    2.2425 C   0  0  0  0  0  0  0  0  0  0  0  0
    0.4078   -4.3617    2.5046 C   0  0  0  0  0  0  0  0  0  0  0  0
   -1.4827   -5.7862    1.7172 C   0  0  0  0  0  0  0  0  0  0  0  0
   -1.8453   -4.1570    3.5673 C   0  0  0  0  0  0  0  0  0  0  0  0
   -2.6259    5.6942    0.8725 C   0  0  0  0  0  0  0  0  0  0  0  0
   -3.2936    5.7816    2.2519 C   0  0  0  0  0  0  0  0  0  0  0  0
   -1.1529    6.0794    1.0314 C   0  0  0  0  0  0  0  0  0  0  0  0
   -3.2872    6.6915   -0.0886 C   0  0  0  0  0  0  0  0  0  0  0  0
   -8.7007   -1.0522   -2.4791 C   0  0  0  0  0  0  0  0  0  0  0  0
   -8.8935   -2.5136   -2.8922 C   0  0  0  0  0  0  0  0  0  0  0  0
   -8.8846   -0.1752   -3.7253 C   0  0  0  0  0  0  0  0  0  0  0  0
   -9.7703   -0.7019   -1.4357 C   0  0  0  0  0  0  0  0  0  0  0  0
    1.2541   -4.8053   -1.6568 C   0  0  0  0  0  0  0  0  0  0  0  0
   -0.2566   -4.8090   -1.9186 C   0  0  0  0  0  0  0  0  0  0  0  0
    1.6245   -6.0643   -0.8650 C   0  0  0  0  0  0  0  0  0  0  0  0
    1.9953   -4.8410   -3.0036 C   0  0  0  0  0  0  0  0  0  0  0  0
    2.9118    5.3296   -2.3599 C   0  0  0  0  0  0  0  0  0  0  0  0
    3.5937    5.1225   -3.7194 C   0  0  0  0  0  0  0  0  0  0  0  0
    3.5789    6.4949   -1.6165 C   0  0  0  0  0  0  0  0  0  0  0  0
    1.4463    5.6927   -2.6128 C   0  0  0  0  0  0  0  0  0  0  0  0
    8.8327   -0.7378    2.4050 C   0  0  0  0  0  0  0  0  0  0  0  0
    9.7592    0.4792    2.3360 C   0  0  0  0  0  0  0  0  0  0  0  0
    8.5877   -1.0679    3.8837 C   0  0  0  0  0  0  0  0  0  0  0  0
    9.5363   -1.9165    1.7188 C   0  0  0  0  0  0  0  0  0  0  0  0
  -10.7653   -0.8925   -1.8353 H   0  0  0  0  0  0  0  0  0  0  0  0
   -9.7105    0.3440   -1.1485 H   0  0  0  0  0  0  0  0  0  0  0  0
   -9.6335   -1.3077   -0.5422 H   0  0  0  0  0  0  0  0  0  0  0  0
   -9.8816   -2.6410   -3.3324 H   0  0  0  0  0  0  0  0  0  0  0  0
   -8.8193   -3.1749   -2.0323 H   0  0  0  0  0  0  0  0  0  0  0  0
   -8.1522   -2.8090   -3.6308 H   0  0  0  0  0  0  0  0  0  0  0  0
   -9.8632   -0.3500   -4.1700 H   0  0  0  0  0  0  0  0  0  0  0  0
   -8.1214   -0.4110   -4.4641 H   0  0  0  0  0  0  0  0  0  0  0  0
   -8.8035    0.8797   -3.4794 H   0  0  0  0  0  0  0  0  0  0  0  0
   -1.5622   -4.9087    4.3026 H   0  0  0  0  0  0  0  0  0  0  0  0
   -2.9214   -4.2062    3.4130 H   0  0  0  0  0  0  0  0  0  0  0  0
   -1.6037   -3.1731    3.9626 H   0  0  0  0  0  0  0  0  0  0  0  0
    0.7209   -5.2732    3.0119 H   0  0  0  0  0  0  0  0  0  0  0  0
    0.6766   -3.5227    3.1402 H   0  0  0  0  0  0  0  0  0  0  0  0
    0.9610   -4.2697    1.5739 H   0  0  0  0  0  0  0  0  0  0  0  0
   -1.0980   -6.5523    2.3891 H   0  0  0  0  0  0  0  0  0  0  0  0
   -1.0653   -5.9547    0.7287 H   0  0  0  0  0  0  0  0  0  0  0  0
   -2.5616   -5.9043    1.6634 H   0  0  0  0  0  0  0  0  0  0  0  0
   -0.5802   -5.8015   -2.2293 H   0  0  0  0  0  0  0  0  0  0  0  0
   -0.5197   -4.1142   -2.7113 H   0  0  0  0  0  0  0  0  0  0  0  0
   -0.8059   -4.5238   -1.0254 H   0  0  0  0  0  0  0  0  0  0  0  0
    1.7036   -5.7218   -3.5738 H   0  0  0  0  0  0  0  0  0  0  0  0
    3.0714   -4.8682   -2.8438 H   0  0  0  0  0  0  0  0  0  0  0  0
    1.7611   -3.9537   -3.5872 H   0  0  0  0  0  0  0  0  0  0  0  0
    1.2322   -6.9459   -1.3701 H   0  0  0  0  0  0  0  0  0  0  0  0
    1.2081   -6.0286    0.1375 H   0  0  0  0  0  0  0  0  0  0  0  0
    2.7026   -6.1781   -0.7896 H   0  0  0  0  0  0  0  0  0  0  0  0
   -3.1818    6.7832    2.6651 H   0  0  0  0  0  0  0  0  0  0  0  0
   -2.8309    5.0714    2.9335 H   0  0  0  0  0  0  0  0  0  0  0  0
   -4.3534    5.5513    2.1890 H   0  0  0  0  0  0  0  0  0  0  0  0
    3.4663    7.4186   -2.1826 H   0  0  0  0  0  0  0  0  0  0  0  0
    4.6389    6.3079   -1.4693 H   0  0  0  0  0  0  0  0  0  0  0  0
    3.1179    6.6280   -0.6400 H   0  0  0  0  0  0  0  0  0  0  0  0
   -1.0793    7.0646    1.4908 H   0  0  0  0  0  0  0  0  0  0  0  0
   -0.6561    6.1231    0.0652 H   0  0  0  0  0  0  0  0  0  0  0  0
   -0.6305    5.3670    1.6650 H   0  0  0  0  0  0  0  0  0  0  0  0
   -3.1562    7.7101    0.2742 H   0  0  0  0  0  0  0  0  0  0  0  0
   -4.3512    6.4939   -0.1844 H   0  0  0  0  0  0  0  0  0  0  0  0
   -2.8365    6.6141   -1.0758 H   0  0  0  0  0  0  0  0  0  0  0  0
    3.5012    6.0190   -4.3311 H   0  0  0  0  0  0  0  0  0  0  0  0
    3.1265    4.2934   -4.2462 H   0  0  0  0  0  0  0  0  0  0  0  0
    4.6492    4.8961   -3.5973 H   0  0  0  0  0  0  0  0  0  0  0  0
    1.3919    6.5632   -3.2657 H   0  0  0  0  0  0  0  0  0  0  0  0
    0.9410    5.9404   -1.6825 H   0  0  0  0  0  0  0  0  0  0  0  0
    0.9193    4.8720   -3.0931 H   0  0  0  0  0  0  0  0  0  0  0  0
    9.6949   -1.6949    0.6653 H   0  0  0  0  0  0  0  0  0  0  0  0
    8.9417   -2.8228    1.7888 H   0  0  0  0  0  0  0  0  0  0  0  0
   10.5034   -2.1023    2.1838 H   0  0  0  0  0  0  0  0  0  0  0  0
    8.0793   -0.2390    4.3720 H   0  0  0  0  0  0  0  0  0  0  0  0
    9.5336   -1.2433    4.3941 H   0  0  0  0  0  0  0  0  0  0  0  0
    7.9703   -1.9550    3.9912 H   0  0  0  0  0  0  0  0  0  0  0  0
    9.3004    1.3440    2.8092 H   0  0  0  0  0  0  0  0  0  0  0  0
   10.0019    0.7269    1.3054 H   0  0  0  0  0  0  0  0  0  0  0  0
   10.6892    0.2595    2.8587 H   0  0  0  0  0  0  0  0  0  0  0  0
    7.9047    1.4932    0.9797 H   0  0  0  0  0  0  0  0  0  0  0  0
    6.7368   -2.4697    2.1653 H   0  0  0  0  0  0  0  0  0  0  0  0
    3.3142   -4.3712    0.2016 H   0  0  0  0  0  0  0  0  0  0  0  0
    5.2231    4.0889   -1.5260 H   0  0  0  0  0  0  0  0  0  0  0  0
   -4.9629    4.3426    0.3356 H   0  0  0  0  0  0  0  0  0  0  0  0
   -3.1733   -4.3203    0.3498 H   0  0  0  0  0  0  0  0  0  0  0  0
   -7.7119    1.3132   -1.5583 H   0  0  0  0  0  0  0  0  0  0  0  0
   -6.5879   -2.8193   -1.9236 H   0  0  0  0  0  0  0  0  0  0  0  0
    0.1797   -2.2718   -1.8311 H   0  0  0  0  0  0  0  0  0  0  0  0
    0.0066   -1.8955    1.8901 H   0  0  0  0  0  0  0  0  0  0  0  0
   -0.7283    3.8783   -0.0697 H   0  0  0  0  0  0  0  0  0  0  0  0
    0.9786    3.7710   -1.0876 H   0  0  0  0  0  0  0  0  0  0  0  0
  1135  1  0  0  0  0
  2  1  1  0  0  0  0
  2 22  1  0  0  0  0
  3  7  1  0  0  0  0
  3  2  2  0  0  0  0
  4  3  1  0  0  0  0
  5  4  2  0  0  0  0
  5  6  1  0  0  0  0
  6 48  1  0  0  0  0
  6  1  3  0  0  0  0
  7 11  1  0  0  0  0
  7  8  1  0  0  0  0
  9 17  1  0  0  0  0
  9  8  1  0  0  0  0
 10  4  1  0  0  0  0
 10  9  1  0  0  0  0
 11 18  2  0  0  0  0
 11 12  1  0  0  0  0
 12 21  2  0  0  0  0
 13 12  1  0  0  0  0
 14 13  1  0  0  0  0
 14  8  1  0  0  0  0
 15 16  1  0  0  0  0
 15 14  2  0  0  0  0
 16 17  1  0  0  0  0
 18 19  1  0  0  0  0
 19 20  2  0  0  0  0
 19136  1  0  0  0  0
 21 20  1  0  0  0  0
 23 18  1  0  0  0  0
 24 23  1  0  0  0  0
 24 22  1  0  0  0  0
 24 46  1  0  0  0  0
 25 26  1  0  0  0  0
 25134  1  0  0  0  0
 27 26  1  0  0  0  0
 27 31  2  0  0  0  0
 28 34  2  0  0  0  0
 28 27  1  0  0  0  0
 29 28  1  0  0  0  0
 29128  1  0  0  0  0
 29 30  1  0  0  0  0
 30 25  1  0  0  0  0
 30 60  1  0  0  0  0
 31 35  1  0  0  0  0
 32 31  1  0  0  0  0
 32 38  1  0  0  0  0
 33 32  2  0  0  0  0
 33 41  1  0  0  0  0
 34 33  1  0  0  0  0
 35 36  2  0  0  0  0
 35 42  1  0  0  0  0
 36 37  1  0  0  0  0
 38 37  1  0  0  0  0
 38 39  2  0  0  0  0
 39126  1  0  0  0  0
 40 39  1  0  0  0  0
 41127  1  0  0  0  0
 41 40  2  0  0  0  0
 42 46  1  0  0  0  0
 43 42  2  0  0  0  0
 43137  1  0  0  0  0
 44 45  2  0  0  0  0
 44 43  1  0  0  0  0
 45129  1  0  0  0  0
 45 36  1  0  0  0  0
 47 26  1  0  0  0  0
 47 24  1  0  0  0  0
 48 49  1  0  0  0  0
 49 84  1  0  0  0  0
 49 85  1  0  0  0  0
 49 86  1  0  0  0  0
 50 87  1  0  0  0  0
 50 48  1  0  0  0  0
 50 88  1  0  0  0  0
 51 83  1  0  0  0  0
 51 48  1  0  0  0  0
 52 20  1  0  0  0  0
 52 53  1  0  0  0  0
 52 54  1  0  0  0  0
 53100  1  0  0  0  0
 54107  1  0  0  0  0
 55 52  1  0  0  0  0
 56 16  1  0  0  0  0
 56 59  1  0  0  0  0
 57 56  1  0  0  0  0
 58 78  1  0  0  0  0
 58 56  1  0  0  0  0
 58 80  1  0  0  0  0
 59 72  1  0  0  0  0
 59 74  1  0  0  0  0
 59 73  1  0  0  0  0
 60 63  1  0  0  0  0
 60 62  1  0  0  0  0
 61 90  1  0  0  0  0
 61 60  1  0  0  0  0
 62 97  1  0  0  0  0
 62 96  1  0  0  0  0
 62 98  1  0  0  0  0
 63 94  1  0  0  0  0
 64 66  1  0  0  0  0
 64 44  1  0  0  0  0
 65113  1  0  0  0  0
 65 64  1  0  0  0  0
 66103  1  0  0  0  0
 66104  1  0  0  0  0
 67 64  1  0  0  0  0
 67115  1  0  0  0  0
 68 40  1  0  0  0  0
 68 70  1  0  0  0  0
 69123  1  0  0  0  0
 69 68  1  0  0  0  0
 70121  1  0  0  0  0
 70122  1  0  0  0  0
 70120  1  0  0  0  0
 71119  1  0  0  0  0
 71118  1  0  0  0  0
 71 68  1  0  0  0  0
 75 57  1  0  0  0  0
 76 57  1  0  0  0  0
 77 57  1  0  0  0  0
 79 58  1  0  0  0  0
 81 51  1  0  0  0  0
 82 51  1  0  0  0  0
 89 50  1  0  0  0  0
 91 61  1  0  0  0  0
 92 61  1  0  0  0  0
 93 63  1  0  0  0  0
 95 63  1  0  0  0  0
 99 53  1  0  0  0  0
101 53  1  0  0  0  0
102 66  1  0  0  0  0
105 54  1  0  0  0  0
106 54  1  0  0  0  0
108 55  1  0  0  0  0
109 55  1  0  0  0  0
110 55  1  0  0  0  0
111 65  1  0  0  0  0
112 65  1  0  0  0  0
114 67  1  0  0  0  0
116 67  1  0  0  0  0
117 71  1  0  0  0  0
124 69  1  0  0  0  0
125 69  1  0  0  0  0
130 21  1  0  0  0  0
131  5  1  0  0  0  0
132 15  1  0  0  0  0
133 17  1  0  0  0  0
M  CHG  1   1  -1
M  END
