energy: -195.865427201300 gnorm: 0.000181095291 xtb: 6.7.1 (edcfbbe)_energy: -195.865427201300 gnorm: 0.000181095291 xtb: 6.7.1 (edcfbbe)
 OpenBabel02242510163D

274296  0  0  0  0  0  0  0  0999 V2000
   -0.8758   -2.0241    1.3550 C   0  0  0  0  0  0  0  0  0  0  0  0
   -1.3373   -0.8984    0.6722 C   0  0  0  0  0  0  0  0  0  0  0  0
   -2.5806   -0.9514   -0.0196 C   0  0  0  0  0  0  0  0  0  0  0  0
   -3.1642   -2.2656   -0.1290 C   0  0  0  0  0  0  0  0  0  0  0  0
   -2.6016   -3.3902    0.5189 C   0  0  0  0  0  0  0  0  0  0  0  0
   -1.5123   -3.2684    1.3450 C   0  0  0  0  0  0  0  0  0  0  0  0
   -3.4013    0.1505   -0.4408 C   0  0  0  0  0  5  0  0  0  0  0  0
   -4.7201   -0.1662   -0.8306 C   0  0  0  0  0  5  0  0  0  0  0  0
   -5.1058   -1.5089   -1.0782 C   0  0  0  0  0  5  0  0  0  0  0  0
   -4.3177   -2.5248   -0.7460 N   0  0  0  0  0  4  0  0  0  0  0  0
   -3.1298    1.5588   -0.3643 C   0  0  0  0  0  0  0  0  0  0  0  0
   -4.2620    2.4380   -0.2124 C   0  0  0  0  0  0  0  0  0  0  0  0
   -5.5055    2.0831   -0.5168 N   0  0  0  0  0  0  0  0  0  0  0  0
   -5.7190    0.8384   -0.9460 C   0  0  0  0  0  0  0  0  0  0  0  0
   -6.9924    0.5032   -1.4382 C   0  0  0  0  0  0  0  0  0  0  0  0
   -7.3205   -0.7936   -1.8248 C   0  0  0  0  0  5  0  0  0  0  0  0
   -6.3781   -1.7886   -1.6269 C   0  0  0  0  0  5  0  0  0  0  0  0
   -1.8784    2.1984   -0.4948 C   0  0  0  0  0  0  0  0  0  0  0  0
   -1.7393    3.5194   -0.0783 C   0  0  0  0  0  0  0  0  0  0  0  0
   -2.8152    4.3103    0.3385 C   0  0  0  0  0  0  0  0  0  0  0  0
   -4.0741    3.7766    0.2006 C   0  0  0  0  0  0  0  0  0  0  0  0
   -0.5887    0.1925    0.8324 O   0  0  0  0  0  0  0  0  0  0  0  0
   -0.8563    1.5833   -1.0938 O   0  0  0  0  0  0  0  0  0  0  0  0
    0.1050    0.8636   -0.2713 B   0  0  1  0  0  0  0  0  0  0  0  0
    1.0448   -2.3087   -1.2609 C   0  0  0  0  0  5  0  0  0  0  0  0
    1.5220   -1.0742   -0.8206 C   0  0  0  0  0  5  0  0  0  0  0  0
    2.7585   -1.0027   -0.1190 C   0  0  0  0  0  0  0  0  0  0  0  0
    3.3174   -2.2754    0.2667 C   0  0  0  0  0  0  0  0  0  0  0  0
    2.7389   -3.5006   -0.1413 C   0  0  0  0  0  5  0  0  0  0  0  0
    1.6582   -3.5345   -0.9863 C   0  0  0  0  0  5  0  0  0  0  0  0
    3.5942    0.1503    0.0745 C   0  0  0  0  0  0  0  0  0  0  0  0
    4.9038   -0.0995    0.5374 C   0  0  0  0  0  0  0  0  0  0  0  0
    5.2632   -1.3685    1.0619 C   0  0  0  0  0  0  0  0  0  0  0  0
    4.4600   -2.4199    0.9378 N   0  0  0  0  0  0  0  0  0  0  0  0
    3.3485    1.5155   -0.2983 C   0  0  0  0  0  0  0  0  0  0  0  0
    4.4984    2.3241   -0.6160 C   0  0  0  0  0  0  0  0  0  0  0  0
    5.7325    2.0200   -0.2274 N   0  0  0  0  0  0  0  0  0  0  0  0
    5.9198    0.8900    0.4541 C   0  0  0  0  0  0  0  0  0  0  0  0
    7.1868    0.6495    1.0218 C   0  0  0  0  0  0  0  0  0  0  0  0
    7.4861   -0.5410    1.6699 C   0  0  0  0  0  0  0  0  0  0  0  0
    6.5242   -1.5429    1.6688 C   0  0  0  0  0  0  0  0  0  0  0  0
    2.1087    2.1902   -0.3206 C   0  0  0  0  0  0  0  0  0  0  0  0
    1.9996    3.3970   -1.0061 C   0  0  0  0  0  0  0  0  0  0  0  0
    3.0941    4.0644   -1.5652 C   0  0  0  0  0  0  0  0  0  0  0  0
    4.3411    3.5495   -1.3020 C   0  0  0  0  0  0  0  0  0  0  0  0
    1.0690    1.7359    0.3828 O   0  0  0  0  0  0  0  0  0  0  0  0
    0.7943   -0.0273   -1.2090 O   0  0  0  0  0  0  0  0  0  0  0  0
   -1.0715   -4.3736    2.2891 C   0  0  0  0  0  0  0  0  0  0  0  0
    0.4430   -4.3456    2.5256 C   0  0  0  0  0  0  0  0  0  0  0  0
   -1.4724   -5.7628    1.7817 C   0  0  0  0  0  0  0  0  0  0  0  0
   -1.7916   -4.1115    3.6224 C   0  0  0  0  0  0  0  0  0  0  0  0
   -2.6337    5.7253    0.8631 C   0  0  0  0  0  0  0  0  0  0  0  0
   -3.2695    5.8092    2.2578 C   0  0  0  0  0  0  0  0  0  0  0  0
   -1.1608    6.1243    0.9824 C   0  0  0  0  0  0  0  0  0  0  0  0
   -3.3292    6.7096   -0.0870 C   0  0  0  0  0  0  0  0  0  0  0  0
   -8.6993   -1.0659   -2.4053 C   0  0  0  0  0  0  0  0  0  0  0  0
   -8.8862   -2.5309   -2.8068 C   0  0  0  0  0  0  0  0  0  0  0  0
   -8.8898   -0.1949   -3.6549 C   0  0  0  0  0  0  0  0  0  0  0  0
   -9.7607   -0.7109   -1.3549 C   0  0  0  0  0  0  0  0  0  0  0  0
    1.2005   -4.8031   -1.6846 C   0  0  0  0  0  0  0  0  0  0  0  0
   -0.3146   -4.8028   -1.9206 C   0  0  0  0  0  0  0  0  0  0  0  0
    1.5845   -6.0646   -0.9041 C   0  0  0  0  0  0  0  0  0  0  0  0
    1.9195   -4.8292   -3.0436 C   0  0  0  0  0  0  0  0  0  0  0  0
    2.9456    5.3410   -2.3766 C   0  0  0  0  0  0  0  0  0  0  0  0
    3.5940    5.1190   -3.7502 C   0  0  0  0  0  0  0  0  0  0  0  0
    3.6533    6.4898   -1.6455 C   0  0  0  0  0  0  0  0  0  0  0  0
    1.4821    5.7329   -2.5945 C   0  0  0  0  0  0  0  0  0  0  0  0
    8.8278   -0.7944    2.3398 C   0  0  0  0  0  0  0  0  0  0  0  0
    9.7595    0.4174    2.2618 C   0  0  0  0  0  0  0  0  0  0  0  0
    8.5846   -1.1212    3.8197 C   0  0  0  0  0  0  0  0  0  0  0  0
    9.5155   -1.9797    1.6486 C   0  0  0  0  0  0  0  0  0  0  0  0
  -10.7547   -0.9152   -1.7464 H   0  0  0  0  0  0  0  0  0  0  0  0
   -9.7121    0.3390   -1.0803 H   0  0  0  0  0  0  0  0  0  0  0  0
   -9.6148   -1.3061   -0.4559 H   0  0  0  0  0  0  0  0  0  0  0  0
   -9.8752   -2.6632   -3.2404 H   0  0  0  0  0  0  0  0  0  0  0  0
   -8.8084   -3.1873   -1.9436 H   0  0  0  0  0  0  0  0  0  0  0  0
   -8.1504   -2.8292   -3.5499 H   0  0  0  0  0  0  0  0  0  0  0  0
   -9.8671   -0.3822   -4.0942 H   0  0  0  0  0  0  0  0  0  0  0  0
   -8.1284   -0.4283   -4.3962 H   0  0  0  0  0  0  0  0  0  0  0  0
   -8.8210    0.8628   -3.4171 H   0  0  0  0  0  0  0  0  0  0  0  0
   -1.5019   -4.8594    4.3573 H   0  0  0  0  0  0  0  0  0  0  0  0
   -2.8703   -4.1546    3.4879 H   0  0  0  0  0  0  0  0  0  0  0  0
   -1.5351   -3.1272    4.0074 H   0  0  0  0  0  0  0  0  0  0  0  0
    0.7537   -5.2511    3.0428 H   0  0  0  0  0  0  0  0  0  0  0  0
    0.7312   -3.5002    3.1441 H   0  0  0  0  0  0  0  0  0  0  0  0
    0.9821   -4.2786    1.5842 H   0  0  0  0  0  0  0  0  0  0  0  0
   -1.0778   -6.5244    2.4512 H   0  0  0  0  0  0  0  0  0  0  0  0
   -1.0775   -5.9442    0.7861 H   0  0  0  0  0  0  0  0  0  0  0  0
   -2.5526   -5.8765    1.7549 H   0  0  0  0  0  0  0  0  0  0  0  0
   -0.6402   -5.7912   -2.2382 H   0  0  0  0  0  0  0  0  0  0  0  0
   -0.5931   -4.1001   -2.7010 H   0  0  0  0  0  0  0  0  0  0  0  0
   -0.8491   -4.5337   -1.0134 H   0  0  0  0  0  0  0  0  0  0  0  0
    1.6172   -5.7074   -3.6101 H   0  0  0  0  0  0  0  0  0  0  0  0
    2.9980   -4.8592   -2.9036 H   0  0  0  0  0  0  0  0  0  0  0  0
    1.6754   -3.9409   -3.6216 H   0  0  0  0  0  0  0  0  0  0  0  0
    1.1788   -6.9416   -1.4044 H   0  0  0  0  0  0  0  0  0  0  0  0
    1.1893   -6.0339    0.1073 H   0  0  0  0  0  0  0  0  0  0  0  0
    2.6633   -6.1842   -0.8542 H   0  0  0  0  0  0  0  0  0  0  0  0
   -3.1546    6.8125    2.6626 H   0  0  0  0  0  0  0  0  0  0  0  0
   -2.7853    5.1067    2.9326 H   0  0  0  0  0  0  0  0  0  0  0  0
   -4.3292    5.5732    2.2224 H   0  0  0  0  0  0  0  0  0  0  0  0
    3.5361    7.4160   -2.2042 H   0  0  0  0  0  0  0  0  0  0  0  0
    4.7150    6.2900   -1.5331 H   0  0  0  0  0  0  0  0  0  0  0  0
    3.2246    6.6267   -0.6550 H   0  0  0  0  0  0  0  0  0  0  0  0
   -1.0881    7.1137    1.4298 H   0  0  0  0  0  0  0  0  0  0  0  0
   -0.6886    6.1663    0.0036 H   0  0  0  0  0  0  0  0  0  0  0  0
   -0.6155    5.4264    1.6133 H   0  0  0  0  0  0  0  0  0  0  0  0
   -3.1890    7.7297    0.2645 H   0  0  0  0  0  0  0  0  0  0  0  0
   -4.3955    6.5119   -0.1470 H   0  0  0  0  0  0  0  0  0  0  0  0
   -2.9096    6.6278   -1.0874 H   0  0  0  0  0  0  0  0  0  0  0  0
    3.5033    6.0172   -4.3573 H   0  0  0  0  0  0  0  0  0  0  0  0
    3.1006    4.2999   -4.2689 H   0  0  0  0  0  0  0  0  0  0  0  0
    4.6482    4.8757   -3.6533 H   0  0  0  0  0  0  0  0  0  0  0  0
    1.4331    6.6080   -3.2397 H   0  0  0  0  0  0  0  0  0  0  0  0
    1.0028    5.9872   -1.6520 H   0  0  0  0  0  0  0  0  0  0  0  0
    0.9279    4.9286   -3.0724 H   0  0  0  0  0  0  0  0  0  0  0  0
    9.6651   -1.7646    0.5927 H   0  0  0  0  0  0  0  0  0  0  0  0
    8.9224   -2.8861    1.7314 H   0  0  0  0  0  0  0  0  0  0  0  0
   10.4860   -2.1640    2.1038 H   0  0  0  0  0  0  0  0  0  0  0  0
    8.0816   -0.2906    4.3106 H   0  0  0  0  0  0  0  0  0  0  0  0
    9.5326   -1.2958    4.3234 H   0  0  0  0  0  0  0  0  0  0  0  0
    7.9692   -2.0089    3.9349 H   0  0  0  0  0  0  0  0  0  0  0  0
    9.3123    1.2861    2.7391 H   0  0  0  0  0  0  0  0  0  0  0  0
   10.0010    0.6614    1.2301 H   0  0  0  0  0  0  0  0  0  0  0  0
   10.6898    0.1913    2.7786 H   0  0  0  0  0  0  0  0  0  0  0  0
    7.9077    1.4427    0.9196 H   0  0  0  0  0  0  0  0  0  0  0  0
    6.7127   -2.5094    2.1081 H   0  0  0  0  0  0  0  0  0  0  0  0
    3.2640   -4.3858    0.1760 H   0  0  0  0  0  0  0  0  0  0  0  0
    5.2500    4.0629   -1.5696 H   0  0  0  0  0  0  0  0  0  0  0  0
   -4.9704    4.3526    0.3632 H   0  0  0  0  0  0  0  0  0  0  0  0
   -3.1444   -4.3122    0.3955 H   0  0  0  0  0  0  0  0  0  0  0  0
   -7.7073    1.3081   -1.4994 H   0  0  0  0  0  0  0  0  0  0  0  0
   -6.5775   -2.8222   -1.8534 H   0  0  0  0  0  0  0  0  0  0  0  0
    0.1485   -2.2623   -1.8583 H   0  0  0  0  0  0  0  0  0  0  0  0
    0.0274   -1.8715    1.9237 H   0  0  0  0  0  0  0  0  0  0  0  0
   -0.7393    3.9147   -0.0901 H   0  0  0  0  0  0  0  0  0  0  0  0
    1.0076    3.8042   -1.0893 H   0  0  0  0  0  0  0  0  0  0  0  0
   -0.8758   -2.0241    7.3550 C   0  0  0  0  0  0  0  0  0  0  0  0
   -1.3373   -0.8984    6.6722 C   0  0  0  0  0  0  0  0  0  0  0  0
   -2.5806   -0.9514    5.9804 C   0  0  0  0  0  0  0  0  0  0  0  0
   -3.1642   -2.2656    5.8710 C   0  0  0  0  0  0  0  0  0  0  0  0
   -2.6016   -3.3902    6.5189 C   0  0  0  0  0  0  0  0  0  0  0  0
   -1.5123   -3.2684    7.3450 C   0  0  0  0  0  0  0  0  0  0  0  0
   -3.4013    0.1505    5.5592 C   0  0  0  0  0  5  0  0  0  0  0  0
   -4.7201   -0.1662    5.1694 C   0  0  0  0  0  5  0  0  0  0  0  0
   -5.1058   -1.5089    4.9218 C   0  0  0  0  0  5  0  0  0  0  0  0
   -4.3177   -2.5248    5.2540 N   0  0  0  0  0  4  0  0  0  0  0  0
   -3.1298    1.5588    5.6357 C   0  0  0  0  0  0  0  0  0  0  0  0
   -4.2620    2.4380    5.7876 C   0  0  0  0  0  0  0  0  0  0  0  0
   -5.5055    2.0831    5.4832 N   0  0  0  0  0  0  0  0  0  0  0  0
   -5.7190    0.8384    5.0540 C   0  0  0  0  0  0  0  0  0  0  0  0
   -6.9924    0.5032    4.5618 C   0  0  0  0  0  0  0  0  0  0  0  0
   -7.3205   -0.7936    4.1752 C   0  0  0  0  0  5  0  0  0  0  0  0
   -6.3781   -1.7886    4.3731 C   0  0  0  0  0  5  0  0  0  0  0  0
   -1.8784    2.1984    5.5052 C   0  0  0  0  0  0  0  0  0  0  0  0
   -1.7393    3.5194    5.9217 C   0  0  0  0  0  0  0  0  0  0  0  0
   -2.8152    4.3103    6.3385 C   0  0  0  0  0  0  0  0  0  0  0  0
   -4.0741    3.7766    6.2006 C   0  0  0  0  0  0  0  0  0  0  0  0
   -0.5887    0.1925    6.8324 O   0  0  0  0  0  0  0  0  0  0  0  0
   -0.8563    1.5833    4.9062 O   0  0  0  0  0  0  0  0  0  0  0  0
    0.1050    0.8636    5.7287 B   0  0  1  0  0  0  0  0  0  0  0  0
    1.0448   -2.3087    4.7391 C   0  0  0  0  0  5  0  0  0  0  0  0
    1.5220   -1.0742    5.1794 C   0  0  0  0  0  5  0  0  0  0  0  0
    2.7585   -1.0027    5.8810 C   0  0  0  0  0  0  0  0  0  0  0  0
    3.3174   -2.2754    6.2667 C   0  0  0  0  0  0  0  0  0  0  0  0
    2.7389   -3.5006    5.8587 C   0  0  0  0  0  5  0  0  0  0  0  0
    1.6582   -3.5345    5.0137 C   0  0  0  0  0  5  0  0  0  0  0  0
    3.5942    0.1503    6.0745 C   0  0  0  0  0  0  0  0  0  0  0  0
    4.9038   -0.0995    6.5374 C   0  0  0  0  0  0  0  0  0  0  0  0
    5.2632   -1.3685    7.0619 C   0  0  0  0  0  0  0  0  0  0  0  0
    4.4600   -2.4199    6.9378 N   0  0  0  0  0  0  0  0  0  0  0  0
    3.3485    1.5155    5.7017 C   0  0  0  0  0  0  0  0  0  0  0  0
    4.4984    2.3241    5.3840 C   0  0  0  0  0  0  0  0  0  0  0  0
    5.7325    2.0200    5.7726 N   0  0  0  0  0  0  0  0  0  0  0  0
    5.9198    0.8900    6.4541 C   0  0  0  0  0  0  0  0  0  0  0  0
    7.1868    0.6495    7.0218 C   0  0  0  0  0  0  0  0  0  0  0  0
    7.4861   -0.5410    7.6699 C   0  0  0  0  0  0  0  0  0  0  0  0
    6.5242   -1.5429    7.6688 C   0  0  0  0  0  0  0  0  0  0  0  0
    2.1087    2.1902    5.6794 C   0  0  0  0  0  0  0  0  0  0  0  0
    1.9996    3.3970    4.9939 C   0  0  0  0  0  0  0  0  0  0  0  0
    3.0941    4.0644    4.4348 C   0  0  0  0  0  0  0  0  0  0  0  0
    4.3411    3.5495    4.6980 C   0  0  0  0  0  0  0  0  0  0  0  0
    1.0690    1.7359    6.3828 O   0  0  0  0  0  0  0  0  0  0  0  0
    0.7943   -0.0273    4.7910 O   0  0  0  0  0  0  0  0  0  0  0  0
   -1.0715   -4.3736    8.2891 C   0  0  0  0  0  0  0  0  0  0  0  0
    0.4430   -4.3456    8.5256 C   0  0  0  0  0  0  0  0  0  0  0  0
   -1.4724   -5.7628    7.7817 C   0  0  0  0  0  0  0  0  0  0  0  0
   -1.7916   -4.1115    9.6224 C   0  0  0  0  0  0  0  0  0  0  0  0
   -2.6337    5.7253    6.8631 C   0  0  0  0  0  0  0  0  0  0  0  0
   -3.2695    5.8092    8.2578 C   0  0  0  0  0  0  0  0  0  0  0  0
   -1.1608    6.1243    6.9824 C   0  0  0  0  0  0  0  0  0  0  0  0
   -3.3292    6.7096    5.9130 C   0  0  0  0  0  0  0  0  0  0  0  0
   -8.6993   -1.0659    3.5947 C   0  0  0  0  0  0  0  0  0  0  0  0
   -8.8862   -2.5309    3.1932 C   0  0  0  0  0  0  0  0  0  0  0  0
   -8.8898   -0.1949    2.3451 C   0  0  0  0  0  0  0  0  0  0  0  0
   -9.7607   -0.7109    4.6451 C   0  0  0  0  0  0  0  0  0  0  0  0
    1.2005   -4.8031    4.3154 C   0  0  0  0  0  0  0  0  0  0  0  0
   -0.3146   -4.8028    4.0794 C   0  0  0  0  0  0  0  0  0  0  0  0
    1.5845   -6.0646    5.0959 C   0  0  0  0  0  0  0  0  0  0  0  0
    1.9195   -4.8292    2.9564 C   0  0  0  0  0  0  0  0  0  0  0  0
    2.9456    5.3410    3.6234 C   0  0  0  0  0  0  0  0  0  0  0  0
    3.5940    5.1190    2.2498 C   0  0  0  0  0  0  0  0  0  0  0  0
    3.6533    6.4898    4.3545 C   0  0  0  0  0  0  0  0  0  0  0  0
    1.4821    5.7329    3.4055 C   0  0  0  0  0  0  0  0  0  0  0  0
    8.8278   -0.7944    8.3398 C   0  0  0  0  0  0  0  0  0  0  0  0
    9.7595    0.4174    8.2618 C   0  0  0  0  0  0  0  0  0  0  0  0
    8.5846   -1.1212    9.8197 C   0  0  0  0  0  0  0  0  0  0  0  0
    9.5155   -1.9797    7.6486 C   0  0  0  0  0  0  0  0  0  0  0  0
  -10.7547   -0.9152    4.2536 H   0  0  0  0  0  0  0  0  0  0  0  0
   -9.7121    0.3390    4.9197 H   0  0  0  0  0  0  0  0  0  0  0  0
   -9.6148   -1.3061    5.5441 H   0  0  0  0  0  0  0  0  0  0  0  0
   -9.8752   -2.6632    2.7596 H   0  0  0  0  0  0  0  0  0  0  0  0
   -8.8084   -3.1873    4.0564 H   0  0  0  0  0  0  0  0  0  0  0  0
   -8.1504   -2.8292    2.4501 H   0  0  0  0  0  0  0  0  0  0  0  0
   -9.8671   -0.3822    1.9058 H   0  0  0  0  0  0  0  0  0  0  0  0
   -8.1284   -0.4283    1.6038 H   0  0  0  0  0  0  0  0  0  0  0  0
   -8.8210    0.8628    2.5829 H   0  0  0  0  0  0  0  0  0  0  0  0
   -1.5019   -4.8594   10.3573 H   0  0  0  0  0  0  0  0  0  0  0  0
   -2.8703   -4.1546    9.4879 H   0  0  0  0  0  0  0  0  0  0  0  0
   -1.5351   -3.1272   10.0074 H   0  0  0  0  0  0  0  0  0  0  0  0
    0.7537   -5.2511    9.0428 H   0  0  0  0  0  0  0  0  0  0  0  0
    0.7312   -3.5002    9.1441 H   0  0  0  0  0  0  0  0  0  0  0  0
    0.9821   -4.2786    7.5842 H   0  0  0  0  0  0  0  0  0  0  0  0
   -1.0778   -6.5244    8.4512 H   0  0  0  0  0  0  0  0  0  0  0  0
   -1.0775   -5.9442    6.7861 H   0  0  0  0  0  0  0  0  0  0  0  0
   -2.5526   -5.8765    7.7549 H   0  0  0  0  0  0  0  0  0  0  0  0
   -0.6402   -5.7912    3.7618 H   0  0  0  0  0  0  0  0  0  0  0  0
   -0.5931   -4.1001    3.2990 H   0  0  0  0  0  0  0  0  0  0  0  0
   -0.8491   -4.5337    4.9866 H   0  0  0  0  0  0  0  0  0  0  0  0
    1.6172   -5.7074    2.3899 H   0  0  0  0  0  0  0  0  0  0  0  0
    2.9980   -4.8592    3.0964 H   0  0  0  0  0  0  0  0  0  0  0  0
    1.6754   -3.9409    2.3784 H   0  0  0  0  0  0  0  0  0  0  0  0
    1.1788   -6.9416    4.5956 H   0  0  0  0  0  0  0  0  0  0  0  0
    1.1893   -6.0339    6.1073 H   0  0  0  0  0  0  0  0  0  0  0  0
    2.6633   -6.1842    5.1458 H   0  0  0  0  0  0  0  0  0  0  0  0
   -3.1546    6.8125    8.6626 H   0  0  0  0  0  0  0  0  0  0  0  0
   -2.7853    5.1067    8.9326 H   0  0  0  0  0  0  0  0  0  0  0  0
   -4.3292    5.5732    8.2224 H   0  0  0  0  0  0  0  0  0  0  0  0
    3.5361    7.4160    3.7958 H   0  0  0  0  0  0  0  0  0  0  0  0
    4.7150    6.2900    4.4669 H   0  0  0  0  0  0  0  0  0  0  0  0
    3.2246    6.6267    5.3450 H   0  0  0  0  0  0  0  0  0  0  0  0
   -1.0881    7.1137    7.4298 H   0  0  0  0  0  0  0  0  0  0  0  0
   -0.6886    6.1663    6.0036 H   0  0  0  0  0  0  0  0  0  0  0  0
   -0.6155    5.4264    7.6133 H   0  0  0  0  0  0  0  0  0  0  0  0
   -3.1890    7.7297    6.2645 H   0  0  0  0  0  0  0  0  0  0  0  0
   -4.3955    6.5119    5.8530 H   0  0  0  0  0  0  0  0  0  0  0  0
   -2.9096    6.6278    4.9126 H   0  0  0  0  0  0  0  0  0  0  0  0
    3.5033    6.0172    1.6427 H   0  0  0  0  0  0  0  0  0  0  0  0
    3.1006    4.2999    1.7311 H   0  0  0  0  0  0  0  0  0  0  0  0
    4.6482    4.8757    2.3467 H   0  0  0  0  0  0  0  0  0  0  0  0
    1.4331    6.6080    2.7603 H   0  0  0  0  0  0  0  0  0  0  0  0
    1.0028    5.9872    4.3480 H   0  0  0  0  0  0  0  0  0  0  0  0
    0.9279    4.9286    2.9276 H   0  0  0  0  0  0  0  0  0  0  0  0
    9.6651   -1.7646    6.5927 H   0  0  0  0  0  0  0  0  0  0  0  0
    8.9224   -2.8861    7.7314 H   0  0  0  0  0  0  0  0  0  0  0  0
   10.4860   -2.1640    8.1038 H   0  0  0  0  0  0  0  0  0  0  0  0
    8.0816   -0.2906   10.3106 H   0  0  0  0  0  0  0  0  0  0  0  0
    9.5326   -1.2958   10.3234 H   0  0  0  0  0  0  0  0  0  0  0  0
    7.9692   -2.0089    9.9349 H   0  0  0  0  0  0  0  0  0  0  0  0
    9.3123    1.2861    8.7391 H   0  0  0  0  0  0  0  0  0  0  0  0
   10.0010    0.6614    7.2301 H   0  0  0  0  0  0  0  0  0  0  0  0
   10.6898    0.1913    8.7786 H   0  0  0  0  0  0  0  0  0  0  0  0
    7.9077    1.4427    6.9196 H   0  0  0  0  0  0  0  0  0  0  0  0
    6.7127   -2.5094    8.1081 H   0  0  0  0  0  0  0  0  0  0  0  0
    3.2640   -4.3858    6.1760 H   0  0  0  0  0  0  0  0  0  0  0  0
    5.2500    4.0629    4.4304 H   0  0  0  0  0  0  0  0  0  0  0  0
   -4.9704    4.3526    6.3632 H   0  0  0  0  0  0  0  0  0  0  0  0
   -3.1444   -4.3122    6.3955 H   0  0  0  0  0  0  0  0  0  0  0  0
   -7.7073    1.3081    4.5006 H   0  0  0  0  0  0  0  0  0  0  0  0
   -6.5775   -2.8222    4.1466 H   0  0  0  0  0  0  0  0  0  0  0  0
    0.1485   -2.2623    4.1417 H   0  0  0  0  0  0  0  0  0  0  0  0
    0.0274   -1.8715    7.9237 H   0  0  0  0  0  0  0  0  0  0  0  0
   -0.7393    3.9147    5.9099 H   0  0  0  0  0  0  0  0  0  0  0  0
    1.0076    3.8042    4.9107 H   0  0  0  0  0  0  0  0  0  0  0  0
  1135  1  0  0  0  0
  2  1  1  0  0  0  0
  2 22  1  0  0  0  0
  3  7  1  0  0  0  0
  3  2  2  0  0  0  0
  4  3  1  0  0  0  0
  5  4  2  0  0  0  0
  5  6  1  0  0  0  0
  6 48  1  0  0  0  0
  6  1  3  0  0  0  0
  7 11  1  0  0  0  0
  7  8  2  0  0  0  0
  9 17  1  0  0  0  0
  9  8  1  0  0  0  0
 10  4  1  0  0  0  0
 10  9  2  0  0  0  0
 11 18  2  0  0  0  0
 11 12  1  0  0  0  0
 12 21  2  0  0  0  0
 13 12  1  0  0  0  0
 14 13  1  0  0  0  0
 14  8  1  0  0  0  0
 15 16  1  0  0  0  0
 15 14  2  0  0  0  0
 16 17  2  0  0  0  0
 18 19  1  0  0  0  0
 19 20  2  0  0  0  0
 19136  1  0  0  0  0
 21 20  1  0  0  0  0
 23 18  1  0  0  0  0
 24 23  1  6  0  0  0
 24 22  1  0  0  0  0
 24 46  1  0  0  0  0
 25 26  2  0  0  0  0
 25134  1  0  0  0  0
 27 26  1  0  0  0  0
 27 31  2  0  0  0  0
 28 34  2  0  0  0  0
 28 27  1  0  0  0  0
 29 28  1  0  0  0  0
 29128  1  0  0  0  0
 29 30  2  0  0  0  0
 30 25  1  0  0  0  0
 30 60  1  0  0  0  0
 31 35  1  0  0  0  0
 32 31  1  0  0  0  0
 32 38  1  0  0  0  0
 33 32  2  0  0  0  0
 33 41  1  0  0  0  0
 34 33  1  0  0  0  0
 35 36  2  0  0  0  0
 35 42  1  0  0  0  0
 36 37  1  0  0  0  0
 38 37  1  0  0  0  0
 38 39  2  0  0  0  0
 39126  1  0  0  0  0
 40 39  1  0  0  0  0
 41127  1  0  0  0  0
 41 40  2  0  0  0  0
 42 46  1  0  0  0  0
 43 42  2  0  0  0  0
 43137  1  0  0  0  0
 44 45  2  0  0  0  0
 44 43  1  0  0  0  0
 45129  1  0  0  0  0
 45 36  1  0  0  0  0
 47 26  1  0  0  0  0
 47 24  1  0  0  0  0
 48 49  1  0  0  0  0
 49 84  1  0  0  0  0
 49 85  1  0  0  0  0
 49 86  1  0  0  0  0
 50 87  1  0  0  0  0
 50 48  1  0  0  0  0
 50 88  1  0  0  0  0
 51 83  1  0  0  0  0
 51 48  1  0  0  0  0
 52 20  1  0  0  0  0
 52 53  1  0  0  0  0
 52 54  1  0  0  0  0
 53100  1  0  0  0  0
 54107  1  0  0  0  0
 55 52  1  0  0  0  0
 56 16  1  0  0  0  0
 56 59  1  0  0  0  0
 57 56  1  0  0  0  0
 58 78  1  0  0  0  0
 58 56  1  0  0  0  0
 58 80  1  0  0  0  0
 59 72  1  0  0  0  0
 59 74  1  0  0  0  0
 59 73  1  0  0  0  0
 60 63  1  0  0  0  0
 60 62  1  0  0  0  0
 61 90  1  0  0  0  0
 61 60  1  0  0  0  0
 62 97  1  0  0  0  0
 62 96  1  0  0  0  0
 62 98  1  0  0  0  0
 63 94  1  0  0  0  0
 64 66  1  0  0  0  0
 64 44  1  0  0  0  0
 65113  1  0  0  0  0
 65 64  1  0  0  0  0
 66103  1  0  0  0  0
 66104  1  0  0  0  0
 67 64  1  0  0  0  0
 67115  1  0  0  0  0
 68 40  1  0  0  0  0
 68 70  1  0  0  0  0
 69123  1  0  0  0  0
 69 68  1  0  0  0  0
 70121  1  0  0  0  0
 70122  1  0  0  0  0
 70120  1  0  0  0  0
 71119  1  0  0  0  0
 71118  1  0  0  0  0
 71 68  1  0  0  0  0
 75 57  1  0  0  0  0
 76 57  1  0  0  0  0
 77 57  1  0  0  0  0
 79 58  1  0  0  0  0
 81 51  1  0  0  0  0
 82 51  1  0  0  0  0
 89 50  1  0  0  0  0
 91 61  1  0  0  0  0
 92 61  1  0  0  0  0
 93 63  1  0  0  0  0
 95 63  1  0  0  0  0
 99 53  1  0  0  0  0
101 53  1  0  0  0  0
102 66  1  0  0  0  0
105 54  1  0  0  0  0
106 54  1  0  0  0  0
108 55  1  0  0  0  0
109 55  1  0  0  0  0
110 55  1  0  0  0  0
111 65  1  0  0  0  0
112 65  1  0  0  0  0
114 67  1  0  0  0  0
116 67  1  0  0  0  0
117 71  1  0  0  0  0
124 69  1  0  0  0  0
125 69  1  0  0  0  0
130 21  1  0  0  0  0
131  5  1  0  0  0  0
132 15  1  0  0  0  0
133 17  1  0  0  0  0
138272  1  0  0  0  0
139138  1  0  0  0  0
139159  1  0  0  0  0
140144  1  0  0  0  0
140139  2  0  0  0  0
141140  1  0  0  0  0
142141  2  0  0  0  0
142143  1  0  0  0  0
143185  1  0  0  0  0
143138  3  0  0  0  0
144148  1  0  0  0  0
144145  2  0  0  0  0
146154  1  0  0  0  0
146145  1  0  0  0  0
147141  1  0  0  0  0
147146  2  0  0  0  0
148155  2  0  0  0  0
148149  1  0  0  0  0
149158  2  0  0  0  0
150149  1  0  0  0  0
151150  1  0  0  0  0
151145  1  0  0  0  0
152153  1  0  0  0  0
152151  2  0  0  0  0
153154  2  0  0  0  0
155156  1  0  0  0  0
156157  2  0  0  0  0
156273  1  0  0  0  0
158157  1  0  0  0  0
160155  1  0  0  0  0
161160  1  6  0  0  0
161159  1  0  0  0  0
161183  1  0  0  0  0
162163  2  0  0  0  0
162271  1  0  0  0  0
164163  1  0  0  0  0
164168  2  0  0  0  0
165171  2  0  0  0  0
165164  1  0  0  0  0
166165  1  0  0  0  0
166265  1  0  0  0  0
166167  2  0  0  0  0
167162  1  0  0  0  0
167197  1  0  0  0  0
168172  1  0  0  0  0
169168  1  0  0  0  0
169175  1  0  0  0  0
170169  2  0  0  0  0
170178  1  0  0  0  0
171170  1  0  0  0  0
172173  2  0  0  0  0
172179  1  0  0  0  0
173174  1  0  0  0  0
175174  1  0  0  0  0
175176  2  0  0  0  0
176263  1  0  0  0  0
177176  1  0  0  0  0
178264  1  0  0  0  0
178177  2  0  0  0  0
179183  1  0  0  0  0
180179  2  0  0  0  0
180274  1  0  0  0  0
181182  2  0  0  0  0
181180  1  0  0  0  0
182266  1  0  0  0  0
182173  1  0  0  0  0
184163  1  0  0  0  0
184161  1  0  0  0  0
185186  1  0  0  0  0
186221  1  0  0  0  0
186222  1  0  0  0  0
186223  1  0  0  0  0
187224  1  0  0  0  0
187185  1  0  0  0  0
187225  1  0  0  0  0
188220  1  0  0  0  0
188185  1  0  0  0  0
189157  1  0  0  0  0
189190  1  0  0  0  0
189191  1  0  0  0  0
190237  1  0  0  0  0
191244  1  0  0  0  0
192189  1  0  0  0  0
193153  1  0  0  0  0
193196  1  0  0  0  0
194193  1  0  0  0  0
195215  1  0  0  0  0
195193  1  0  0  0  0
195217  1  0  0  0  0
196209  1  0  0  0  0
196211  1  0  0  0  0
196210  1  0  0  0  0
197200  1  0  0  0  0
197199  1  0  0  0  0
198227  1  0  0  0  0
198197  1  0  0  0  0
199234  1  0  0  0  0
199233  1  0  0  0  0
199235  1  0  0  0  0
200231  1  0  0  0  0
201203  1  0  0  0  0
201181  1  0  0  0  0
202250  1  0  0  0  0
202201  1  0  0  0  0
203240  1  0  0  0  0
203241  1  0  0  0  0
204201  1  0  0  0  0
204252  1  0  0  0  0
205177  1  0  0  0  0
205207  1  0  0  0  0
206260  1  0  0  0  0
206205  1  0  0  0  0
207258  1  0  0  0  0
207259  1  0  0  0  0
207257  1  0  0  0  0
208256  1  0  0  0  0
208255  1  0  0  0  0
208205  1  0  0  0  0
212194  1  0  0  0  0
213194  1  0  0  0  0
214194  1  0  0  0  0
216195  1  0  0  0  0
218188  1  0  0  0  0
219188  1  0  0  0  0
226187  1  0  0  0  0
228198  1  0  0  0  0
229198  1  0  0  0  0
230200  1  0  0  0  0
232200  1  0  0  0  0
236190  1  0  0  0  0
238190  1  0  0  0  0
239203  1  0  0  0  0
242191  1  0  0  0  0
243191  1  0  0  0  0
245192  1  0  0  0  0
246192  1  0  0  0  0
247192  1  0  0  0  0
248202  1  0  0  0  0
249202  1  0  0  0  0
251204  1  0  0  0  0
253204  1  0  0  0  0
254208  1  0  0  0  0
261206  1  0  0  0  0
262206  1  0  0  0  0
267158  1  0  0  0  0
268142  1  0  0  0  0
269152  1  0  0  0  0
270154  1  0  0  0  0
M  END
