 xtb: 6.7.1 (edcfbbe)
          02282514553D

156164  0     0  0            999 V2000
    0.5352    4.2927   -1.7586 C   0  0  0  0  0  0  0  0  0  0  0  0
    1.2193   -2.7869   -0.0388 C   0  0  0  0  0  0  0  0  0  0  0  0
   -4.0666    2.0435   -2.2629 C   0  0  0  0  0  0  0  0  0  0  0  0
   -3.2245    1.1159   -1.6797 C   0  0  0  0  0  0  0  0  0  0  0  0
   -1.8980    1.4824   -1.3393 C   0  0  0  0  0  0  0  0  0  0  0  0
   -1.3602    2.7015   -1.8161 C   0  0  0  0  0  0  0  0  0  0  0  0
   -2.2272    3.6083   -2.4234 C   0  0  0  0  0  0  0  0  0  0  0  0
   -3.5583    3.2939   -2.5765 C   0  0  0  0  0  0  0  0  0  0  0  0
   -1.0552    0.6163   -0.5799 C   0  0  0  0  0  0  0  0  0  0  0  0
    0.3408    0.7184   -0.8405 C   0  0  0  0  0  0  0  0  0  0  0  0
    0.8631    1.9092   -1.3910 C   0  0  0  0  0  0  0  0  0  0  0  0
   -0.0046    2.9497   -1.6783 N   0  0  0  0  0  0  0  0  0  0  0  0
   -1.4511   -0.2826    0.4539 C   0  0  0  0  0  0  0  0  0  0  0  0
   -0.5438   -1.3088    0.8164 C   0  0  0  0  0  0  0  0  0  0  0  0
    0.6129   -1.4794    0.0670 N   0  0  0  0  0  0  0  0  0  0  0  0
    1.1830   -0.3726   -0.5358 C   0  0  0  0  0  0  0  0  0  0  0  0
    2.5384   -0.2831   -0.8204 C   0  0  0  0  0  0  0  0  0  0  0  0
    3.0443    0.9054   -1.3168 C   0  0  0  0  0  0  0  0  0  0  0  0
    2.2416    1.9987   -1.5850 C   0  0  0  0  0  0  0  0  0  0  0  0
   -2.6337   -0.1283    1.2206 C   0  0  0  0  0  0  0  0  0  0  0  0
   -2.9035   -1.0013    2.2608 C   0  0  0  0  0  0  0  0  0  0  0  0
   -1.9706   -1.9545    2.6268 C   0  0  0  0  0  0  0  0  0  0  0  0
   -0.7911   -2.1062    1.9241 C   0  0  0  0  0  0  0  0  0  0  0  0
   -3.4129    0.9715    0.9564 O   0  0  0  0  0  0  0  0  0  0  0  0
   -3.5643   -0.1856   -1.4430 O   0  0  0  0  0  0  0  0  0  0  0  0
   -4.7228    4.5724   -3.1403 S   0  0  0  0  0  0  0  0  0  0  0  0
   -2.1298   -2.8170    4.2135 S   0  0  0  0  0  0  0  0  0  0  0  0
    4.8651    1.0021   -1.4413 S   0  0  0  0  0  0  0  0  0  0  0  0
    5.1268    2.4236   -1.2529 O   0  0  0  0  0  0  0  0  0  0  0  0
    4.9947    0.6847   -3.0841 O   0  0  0  0  0  0  0  0  0  0  0  0
    4.6940    1.7343   -3.9612 C   0  0  0  0  0  0  0  0  0  0  0  0
   -3.8777    5.6623   -3.5949 O   0  0  0  0  0  0  0  0  0  0  0  0
   -5.2846    4.9573   -1.6071 O   0  0  0  0  0  0  0  0  0  0  0  0
   -4.3874    5.6585   -0.7795 C   0  0  0  0  0  0  0  0  0  0  0  0
   -3.5595   -2.8261    4.4850 O   0  0  0  0  0  0  0  0  0  0  0  0
   -1.7550   -4.3582    3.6114 O   0  0  0  0  0  0  0  0  0  0  0  0
   -2.7404   -4.9546    2.8146 C   0  0  0  0  0  0  0  0  0  0  0  0
   -5.1023    1.8328   -2.4741 H   0  0  0  0  0  0  0  0  0  0  0  0
   -1.9189    4.5736   -2.7896 H   0  0  0  0  0  0  0  0  0  0  0  0
   -3.8101   -0.9364    2.8401 H   0  0  0  0  0  0  0  0  0  0  0  0
   -0.0782   -2.8405    2.2587 H   0  0  0  0  0  0  0  0  0  0  0  0
    3.2316   -1.0802   -0.6155 H   0  0  0  0  0  0  0  0  0  0  0  0
    2.7218    2.8995   -1.9268 H   0  0  0  0  0  0  0  0  0  0  0  0
    0.2174   -3.8272   -0.5518 C   0  0  0  0  0  0  0  0  0  0  0  0
    0.8954   -5.1615   -0.8345 C   0  0  0  0  0  0  0  0  0  0  0  0
    0.9836    4.7885   -0.3804 C   0  0  0  0  0  0  0  0  0  0  0  0
    1.4711    6.2294   -0.4449 C   0  0  0  0  0  0  0  0  0  0  0  0
   -4.7449    0.9658    1.4151 C   0  0  0  0  0  0  0  0  0  0  0  0
   -4.8181   -0.6327   -1.8911 C   0  0  0  0  0  0  0  0  0  0  0  0
   -4.9773    6.1441   -0.0037 H   0  0  0  0  0  0  0  0  0  0  0  0
   -3.8615    6.4182   -1.3669 H   0  0  0  0  0  0  0  0  0  0  0  0
   -3.6587    4.9801   -0.3263 H   0  0  0  0  0  0  0  0  0  0  0  0
   -2.6093   -6.0353    2.8674 H   0  0  0  0  0  0  0  0  0  0  0  0
   -2.6546   -4.6208    1.7742 H   0  0  0  0  0  0  0  0  0  0  0  0
   -3.7315   -4.6878    3.1946 H   0  0  0  0  0  0  0  0  0  0  0  0
    5.3123    1.6153   -4.8508 H   0  0  0  0  0  0  0  0  0  0  0  0
    4.9270    2.6935   -3.4855 H   0  0  0  0  0  0  0  0  0  0  0  0
    3.6358    1.7123   -4.2426 H   0  0  0  0  0  0  0  0  0  0  0  0
    1.6405   -3.1007    0.9236 H   0  0  0  0  0  0  0  0  0  0  0  0
    2.0337   -2.7187   -0.7598 H   0  0  0  0  0  0  0  0  0  0  0  0
   -0.2389   -3.4442   -1.4670 H   0  0  0  0  0  0  0  0  0  0  0  0
   -0.5775   -3.9703    0.1804 H   0  0  0  0  0  0  0  0  0  0  0  0
    1.6788   -5.0467   -1.5809 H   0  0  0  0  0  0  0  0  0  0  0  0
    0.1707   -5.8803   -1.2081 H   0  0  0  0  0  0  0  0  0  0  0  0
    1.3378   -5.5667    0.0727 H   0  0  0  0  0  0  0  0  0  0  0  0
   -5.2405    1.7855    0.8959 H   0  0  0  0  0  0  0  0  0  0  0  0
   -4.8071    1.1411    2.4933 H   0  0  0  0  0  0  0  0  0  0  0  0
   -5.2406    0.0214    1.1748 H   0  0  0  0  0  0  0  0  0  0  0  0
   -4.8552   -1.6944   -1.6492 H   0  0  0  0  0  0  0  0  0  0  0  0
   -4.9258   -0.5041   -2.9736 H   0  0  0  0  0  0  0  0  0  0  0  0
   -5.6427   -0.1188   -1.3860 H   0  0  0  0  0  0  0  0  0  0  0  0
    1.7734    6.5726    0.5416 H   0  0  0  0  0  0  0  0  0  0  0  0
    0.6842    6.8859   -0.8092 H   0  0  0  0  0  0  0  0  0  0  0  0
    2.3267    6.3137   -1.1117 H   0  0  0  0  0  0  0  0  0  0  0  0
    1.7846    4.1504   -0.0028 H   0  0  0  0  0  0  0  0  0  0  0  0
    0.1272    4.7120    0.2921 H   0  0  0  0  0  0  0  0  0  0  0  0
   -0.2300    4.9690   -2.1277 H   0  0  0  0  0  0  0  0  0  0  0  0
    1.3667    4.3202   -2.4689 H   0  0  0  0  0  0  0  0  0  0  0  0
    2.5036    2.0221    2.0931 C   0  0  0  0  0  0  0  0  0  0  0  0
    1.9751   -4.8145    4.5965 C   0  0  0  0  0  0  0  0  0  0  0  0
   -2.2095    1.4360    3.9063 C   0  0  0  0  0  0  0  0  0  0  0  0
   -1.4584    0.4102    4.4512 C   0  0  0  0  0  0  0  0  0  0  0  0
   -0.0989    0.2452    4.0763 C   0  0  0  0  0  0  0  0  0  0  0  0
    0.4387    1.0886    3.0722 C   0  0  0  0  0  0  0  0  0  0  0  0
   -0.3785    2.0297    2.4549 C   0  0  0  0  0  0  0  0  0  0  0  0
   -1.6715    2.2094    2.8917 C   0  0  0  0  0  0  0  0  0  0  0  0
    0.7134   -0.8206    4.5656 C   0  0  0  0  0  0  0  0  0  0  0  0
    1.8169   -1.2161    3.7639 C   0  0  0  0  0  0  0  0  0  0  0  0
    2.3693   -0.3013    2.8415 C   0  0  0  0  0  0  0  0  0  0  0  0
    1.7613    0.9279    2.6862 N   0  0  0  0  0  0  0  0  0  0  0  0
    0.5092   -1.5659    5.7675 C   0  0  0  0  0  0  0  0  0  0  0  0
    0.9422   -2.9137    5.8122 C   0  0  0  0  0  0  0  0  0  0  0  0
    1.7370   -3.3971    4.7830 N   0  0  0  0  0  0  0  0  0  0  0  0
    2.3728   -2.5047    3.9288 C   0  0  0  0  0  0  0  0  0  0  0  0
    3.5228   -2.8348    3.2159 C   0  0  0  0  0  0  0  0  0  0  0  0
    4.0681   -1.9134    2.3377 C   0  0  0  0  0  0  0  0  0  0  0  0
    3.5149   -0.6607    2.1421 C   0  0  0  0  0  0  0  0  0  0  0  0
   -0.0501   -0.9702    6.9254 C   0  0  0  0  0  0  0  0  0  0  0  0
   -0.4316   -1.7702    7.9869 C   0  0  0  0  0  0  0  0  0  0  0  0
   -0.1727   -3.1258    7.9265 C   0  0  0  0  0  0  0  0  0  0  0  0
    0.5645   -3.6918    6.9044 C   0  0  0  0  0  0  0  0  0  0  0  0
   -0.1362    0.3887    6.9220 O   0  0  0  0  0  0  0  0  0  0  0  0
   -1.9925   -0.5463    5.2704 O   0  0  0  0  0  0  0  0  0  0  0  0
   -2.7990    3.2757    1.9563 S   0  0  0  0  0  0  0  0  0  0  0  0
   -0.8106   -4.2205    9.2358 S   0  0  0  0  0  0  0  0  0  0  0  0
    5.6335   -2.2627    1.4638 S   0  0  0  0  0  0  0  0  0  0  0  0
    5.4670   -1.5574    0.1993 O   0  0  0  0  0  0  0  0  0  0  0  0
    5.3936   -3.9026    1.1741 O   0  0  0  0  0  0  0  0  0  0  0  0
    4.7351   -4.2648   -0.0098 C   0  0  0  0  0  0  0  0  0  0  0  0
   -1.9651    3.8446    0.9093 O   0  0  0  0  0  0  0  0  0  0  0  0
   -2.9612    4.4710    3.1394 O   0  0  0  0  0  0  0  0  0  0  0  0
   -1.8326    5.2673    3.3712 C   0  0  0  0  0  0  0  0  0  0  0  0
   -1.6081   -3.3347   10.0663 O   0  0  0  0  0  0  0  0  0  0  0  0
   -1.8434   -5.0900    8.2472 O   0  0  0  0  0  0  0  0  0  0  0  0
   -2.9634   -4.4054    7.7432 C   0  0  0  0  0  0  0  0  0  0  0  0
   -3.2293    1.6112    4.2081 H   0  0  0  0  0  0  0  0  0  0  0  0
   -0.0558    2.6072    1.6046 H   0  0  0  0  0  0  0  0  0  0  0  0
   -0.9344   -1.3898    8.8612 H   0  0  0  0  0  0  0  0  0  0  0  0
    0.8076   -4.7368    6.9933 H   0  0  0  0  0  0  0  0  0  0  0  0
    4.0104   -3.7889    3.3236 H   0  0  0  0  0  0  0  0  0  0  0  0
    3.9843   -0.0036    1.4311 H   0  0  0  0  0  0  0  0  0  0  0  0
    1.4519   -5.3091    3.2444 C   0  0  0  0  0  0  0  0  0  0  0  0
    1.6918   -6.8049    3.0855 C   0  0  0  0  0  0  0  0  0  0  0  0
    3.7335    2.4177    2.9175 C   0  0  0  0  0  0  0  0  0  0  0  0
    4.5029    3.5240    2.2054 C   0  0  0  0  0  0  0  0  0  0  0  0
   -0.5846    1.0235    8.0944 C   0  0  0  0  0  0  0  0  0  0  0  0
   -3.2364   -0.2913    5.8841 C   0  0  0  0  0  0  0  0  0  0  0  0
   -2.1697    6.2018    3.8182 H   0  0  0  0  0  0  0  0  0  0  0  0
   -1.3267    5.4801    2.4236 H   0  0  0  0  0  0  0  0  0  0  0  0
   -1.1329    4.7639    4.0476 H   0  0  0  0  0  0  0  0  0  0  0  0
   -3.7528   -5.1393    7.5866 H   0  0  0  0  0  0  0  0  0  0  0  0
   -2.7261   -3.9100    6.7964 H   0  0  0  0  0  0  0  0  0  0  0  0
   -3.3025   -3.6630    8.4735 H   0  0  0  0  0  0  0  0  0  0  0  0
    5.2475   -5.1285   -0.4338 H   0  0  0  0  0  0  0  0  0  0  0  0
    4.7758   -3.4360   -0.7255 H   0  0  0  0  0  0  0  0  0  0  0  0
    3.6922   -4.5190    0.1972 H   0  0  0  0  0  0  0  0  0  0  0  0
    1.4529   -5.3696    5.3700 H   0  0  0  0  0  0  0  0  0  0  0  0
    3.0438   -5.0349    4.6959 H   0  0  0  0  0  0  0  0  0  0  0  0
    1.9526   -4.7736    2.4358 H   0  0  0  0  0  0  0  0  0  0  0  0
    0.3826   -5.0977    3.1921 H   0  0  0  0  0  0  0  0  0  0  0  0
    2.7558   -7.0308    3.1233 H   0  0  0  0  0  0  0  0  0  0  0  0
    1.3012   -7.1547    2.1330 H   0  0  0  0  0  0  0  0  0  0  0  0
    1.1947   -7.3575    3.8791 H   0  0  0  0  0  0  0  0  0  0  0  0
   -0.5380    2.0917    7.8862 H   0  0  0  0  0  0  0  0  0  0  0  0
    0.0620    0.7907    8.9466 H   0  0  0  0  0  0  0  0  0  0  0  0
   -1.6141    0.7469    8.3412 H   0  0  0  0  0  0  0  0  0  0  0  0
   -3.3531   -1.0658    6.6401 H   0  0  0  0  0  0  0  0  0  0  0  0
   -4.0625   -0.3790    5.1746 H   0  0  0  0  0  0  0  0  0  0  0  0
   -3.2523    0.6958    6.3535 H   0  0  0  0  0  0  0  0  0  0  0  0
    5.3877    3.7963    2.7743 H   0  0  0  0  0  0  0  0  0  0  0  0
    3.8825    4.4107    2.0938 H   0  0  0  0  0  0  0  0  0  0  0  0
    4.8169    3.1988    1.2158 H   0  0  0  0  0  0  0  0  0  0  0  0
    4.3848    1.5562    3.0651 H   0  0  0  0  0  0  0  0  0  0  0  0
    3.4071    2.7593    3.9025 H   0  0  0  0  0  0  0  0  0  0  0  0
    1.8497    2.8901    2.0436 H   0  0  0  0  0  0  0  0  0  0  0  0
    2.8092    1.7684    1.0743 H   0  0  0  0  0  0  0  0  0  0  0  0
  3  4  4  0  0  0  0
  4  5  4  0  0  0  0
  5  6  4  0  0  0  0
  6  7  4  0  0  0  0
  3  8  4  0  0  0  0
  7  8  4  0  0  0  0
  5  9  1  0  0  0  0
  9 10  4  0  0  0  0
 10 11  4  0  0  0  0
  1 12  1  0  0  0  0
  6 12  1  0  0  0  0
 11 12  1  0  0  0  0
  9 13  4  0  0  0  0
 13 14  4  0  0  0  0
  2 15  1  0  0  0  0
 14 15  1  0  0  0  0
 10 16  4  0  0  0  0
 15 16  1  0  0  0  0
 16 17  4  0  0  0  0
 17 18  4  0  0  0  0
 11 19  4  0  0  0  0
 18 19  4  0  0  0  0
 13 20  4  0  0  0  0
 20 21  4  0  0  0  0
 21 22  4  0  0  0  0
 14 23  4  0  0  0  0
 22 23  4  0  0  0  0
 20 24  1  0  0  0  0
  4 25  1  0  0  0  0
  8 26  1  0  0  0  0
 22 27  1  0  0  0  0
 18 28  1  0  0  0  0
 28 29  2  0  0  0  0
 28 30  1  0  0  0  0
 30 31  1  0  0  0  0
 26 32  2  0  0  0  0
 26 33  1  0  0  0  0
 33 34  1  0  0  0  0
 27 35  2  0  0  0  0
 27 36  1  0  0  0  0
 36 37  1  0  0  0  0
  3 38  1  0  0  0  0
  7 39  1  0  0  0  0
 21 40  1  0  0  0  0
 23 41  1  0  0  0  0
 17 42  1  0  0  0  0
 19 43  1  0  0  0  0
  2 44  1  0  0  0  0
 44 45  1  0  0  0  0
  1 46  1  0  0  0  0
 46 47  1  0  0  0  0
 24 48  1  0  0  0  0
 25 49  1  0  0  0  0
 34 50  1  0  0  0  0
 34 51  1  0  0  0  0
 34 52  1  0  0  0  0
 37 53  1  0  0  0  0
 37 54  1  0  0  0  0
 37 55  1  0  0  0  0
 31 56  1  0  0  0  0
 31 57  1  0  0  0  0
 31 58  1  0  0  0  0
  2 59  1  0  0  0  0
  2 60  1  0  0  0  0
 44 61  1  0  0  0  0
 44 62  1  0  0  0  0
 45 63  1  0  0  0  0
 45 64  1  0  0  0  0
 45 65  1  0  0  0  0
 48 66  1  0  0  0  0
 48 67  1  0  0  0  0
 48 68  1  0  0  0  0
 49 69  1  0  0  0  0
 49 70  1  0  0  0  0
 49 71  1  0  0  0  0
 47 72  1  0  0  0  0
 47 73  1  0  0  0  0
 47 74  1  0  0  0  0
 46 75  1  0  0  0  0
 46 76  1  0  0  0  0
  1 77  1  0  0  0  0
  1 78  1  0  0  0  0
 81 82  4  0  0  0  0
 82 83  4  0  0  0  0
 83 84  4  0  0  0  0
 84 85  4  0  0  0  0
 81 86  4  0  0  0  0
 85 86  4  0  0  0  0
 83 87  1  0  0  0  0
 87 88  4  0  0  0  0
 88 89  4  0  0  0  0
 79 90  1  0  0  0  0
 84 90  1  0  0  0  0
 89 90  1  0  0  0  0
 87 91  1  0  0  0  0
 91 92  4  0  0  0  0
 80 93  1  0  0  0  0
 92 93  1  0  0  0  0
 88 94  4  0  0  0  0
 93 94  1  0  0  0  0
 94 95  4  0  0  0  0
 95 96  4  0  0  0  0
 89 97  4  0  0  0  0
 96 97  4  0  0  0  0
 91 98  4  0  0  0  0
 98 99  4  0  0  0  0
 99100  4  0  0  0  0
 92101  4  0  0  0  0
100101  4  0  0  0  0
 98102  1  0  0  0  0
 82103  1  0  0  0  0
 86104  1  0  0  0  0
100105  1  0  0  0  0
 96106  1  0  0  0  0
106107  2  0  0  0  0
106108  1  0  0  0  0
108109  1  0  0  0  0
104110  2  0  0  0  0
104111  1  0  0  0  0
111112  1  0  0  0  0
105113  2  0  0  0  0
105114  1  0  0  0  0
114115  1  0  0  0  0
 81116  1  0  0  0  0
 85117  1  0  0  0  0
 99118  1  0  0  0  0
101119  1  0  0  0  0
 95120  1  0  0  0  0
 97121  1  0  0  0  0
 80122  1  0  0  0  0
122123  1  0  0  0  0
 79124  1  0  0  0  0
124125  1  0  0  0  0
102126  1  0  0  0  0
103127  1  0  0  0  0
112128  1  0  0  0  0
112129  1  0  0  0  0
112130  1  0  0  0  0
115131  1  0  0  0  0
115132  1  0  0  0  0
115133  1  0  0  0  0
109134  1  0  0  0  0
109135  1  0  0  0  0
109136  1  0  0  0  0
 80137  1  0  0  0  0
 80138  1  0  0  0  0
122139  1  0  0  0  0
122140  1  0  0  0  0
123141  1  0  0  0  0
123142  1  0  0  0  0
123143  1  0  0  0  0
126144  1  0  0  0  0
126145  1  0  0  0  0
126146  1  0  0  0  0
127147  1  0  0  0  0
127148  1  0  0  0  0
127149  1  0  0  0  0
125150  1  0  0  0  0
125151  1  0  0  0  0
125152  1  0  0  0  0
124153  1  0  0  0  0
124154  1  0  0  0  0
 79155  1  0  0  0  0
 79156  1  0  0  0  0
M  END
