 energy: -278.272551106446 gnorm: 0.000094878606 xtb: 6.7.1 (edcfbbe)
          03212514103D

 95106  0     0  0            999 V2000
    1.2550    3.4369    0.0371 C   0  0  0  0  0  0  0  0  0  0  0  0
    1.5460    2.1088    0.3842 C   0  0  0  0  0  0  0  0  0  0  0  0
    2.6832    1.5002   -0.2443 C   0  0  0  0  0  0  0  0  0  0  0  0
    3.3537    2.2633   -1.2882 C   0  0  0  0  0  0  0  0  0  0  0  0
    2.8072    3.4830   -1.7863 C   0  0  0  0  0  0  0  0  0  0  0  0
    1.8006    4.0460   -1.0781 C   0  0  0  0  0  0  0  0  0  0  0  0
    3.3564    0.2824    0.1255 C   0  0  0  0  0  0  0  0  0  0  0  0
    4.6750    0.0763   -0.3379 C   0  0  0  0  0  0  0  0  0  0  0  0
    5.2077    0.9088   -1.3585 C   0  0  0  0  0  0  0  0  0  0  0  0
    4.5106    1.9317   -1.8322 N   0  0  0  0  0  0  0  0  0  0  0  0
    2.8902   -0.7151    1.0344 C   0  0  0  0  0  0  0  0  0  0  0  0
    3.8665   -1.5328    1.7219 C   0  0  0  0  0  0  0  0  0  0  0  0
    5.0973   -1.6643    1.2785 N   0  0  0  0  0  0  0  0  0  0  0  0
    5.4880   -0.9576    0.2173 C   0  0  0  0  0  0  0  0  0  0  0  0
    6.7863   -1.1654   -0.2986 C   0  0  0  0  0  0  0  0  0  0  0  0
    7.2372   -0.3833   -1.3404 C   0  0  0  0  0  0  0  0  0  0  0  0
    6.4956    0.6353   -1.8854 C   0  0  0  0  0  0  0  0  0  0  0  0
    1.5260   -0.9260    1.3087 C   0  0  0  0  0  0  0  0  0  0  0  0
    1.2382   -1.4103    2.5889 C   0  0  0  0  0  0  0  0  0  0  0  0
    2.1989   -2.0832    3.3289 C   0  0  0  0  0  0  0  0  0  0  0  0
    3.4728   -2.2571    2.8883 C   0  0  0  0  0  0  0  0  0  0  0  0
    0.7162    1.5492    1.2808 O   0  0  0  0  0  0  0  0  0  0  0  0
    0.6167   -0.6005    0.4027 O   0  0  0  0  0  0  0  0  0  0  0  0
   -1.8064   -2.1510    1.8043 C   0  0  0  0  0  0  0  0  0  0  0  0
   -2.0246   -0.9902    1.0467 C   0  0  0  0  0  0  0  0  0  0  0  0
   -2.8583   -1.1115   -0.1148 C   0  0  0  0  0  0  0  0  0  0  0  0
   -3.2903   -2.4521   -0.4861 C   0  0  0  0  0  0  0  0  0  0  0  0
   -2.7725   -3.6090    0.1682 C   0  0  0  0  0  0  0  0  0  0  0  0
   -2.0816   -3.4151    1.3157 C   0  0  0  0  0  0  0  0  0  0  0  0
   -3.4622   -0.0584   -0.8891 C   0  0  0  0  0  0  0  0  0  0  0  0
   -4.5614   -0.3783   -1.7169 C   0  0  0  0  0  0  0  0  0  0  0  0
   -4.8758   -1.7373   -1.9869 C   0  0  0  0  0  0  0  0  0  0  0  0
   -4.1979   -2.7181   -1.4078 N   0  0  0  0  0  0  0  0  0  0  0  0
   -3.1609    1.3357   -0.8256 C   0  0  0  0  0  0  0  0  0  0  0  0
   -4.1902    2.2823   -1.1983 C   0  0  0  0  0  0  0  0  0  0  0  0
   -5.2198    1.9323   -1.9372 N   0  0  0  0  0  0  0  0  0  0  0  0
   -5.3721    0.6528   -2.2806 C   0  0  0  0  0  0  0  0  0  0  0  0
   -6.4363    0.3006   -3.1398 C   0  0  0  0  0  0  0  0  0  0  0  0
   -6.6606   -1.0271   -3.4354 C   0  0  0  0  0  0  0  0  0  0  0  0
   -5.9193   -2.0485   -2.8951 C   0  0  0  0  0  0  0  0  0  0  0  0
   -1.9158    1.8323   -0.3966 C   0  0  0  0  0  0  0  0  0  0  0  0
   -1.9497    3.0880    0.2188 C   0  0  0  0  0  0  0  0  0  0  0  0
   -2.9956    3.9680   -0.0163 C   0  0  0  0  0  0  0  0  0  0  0  0
   -4.0622    3.6465   -0.7950 C   0  0  0  0  0  0  0  0  0  0  0  0
   -1.4215    0.1205    1.5029 O   0  0  0  0  0  0  0  0  0  0  0  0
   -0.8313    1.0841   -0.5281 O   0  0  0  0  0  0  0  0  0  0  0  0
   -0.2350    0.5504    0.6943 B   0  0  0  0  0  0  0  0  0  0  0  0
    0.9724    5.5952   -1.6814 S   0  0  0  0  0  0  0  0  0  0  0  0
    0.9887    6.2625   -0.1912 F   0  0  0  0  0  0  0  0  0  0  0  0
    2.4064    6.3141   -2.0339 F   0  0  0  0  0  0  0  0  0  0  0  0
    0.2108    6.8837   -2.2229 F   0  0  0  0  0  0  0  0  0  0  0  0
    0.9241    4.9781   -3.2150 F   0  0  0  0  0  0  0  0  0  0  0  0
   -0.5207    4.8882   -1.4100 F   0  0  0  0  0  0  0  0  0  0  0  0
    1.6738   -2.7439    4.9922 S   0  0  0  0  0  0  0  0  0  0  0  0
    3.2343   -2.7814    5.5157 F   0  0  0  0  0  0  0  0  0  0  0  0
    1.5433   -1.1858    5.5330 F   0  0  0  0  0  0  0  0  0  0  0  0
    1.2401   -3.2491    6.4428 F   0  0  0  0  0  0  0  0  0  0  0  0
    0.0726   -2.6936    4.6094 F   0  0  0  0  0  0  0  0  0  0  0  0
    1.7983   -4.2953    4.5062 F   0  0  0  0  0  0  0  0  0  0  0  0
    8.9378   -0.7157   -2.0287 S   0  0  0  0  0  0  0  0  0  0  0  0
    8.3610   -0.6121   -3.5639 F   0  0  0  0  0  0  0  0  0  0  0  0
    8.6493   -2.3329   -2.0255 F   0  0  0  0  0  0  0  0  0  0  0  0
   10.3861   -1.0020   -2.6197 F   0  0  0  0  0  0  0  0  0  0  0  0
    9.5601   -0.8290   -0.5140 F   0  0  0  0  0  0  0  0  0  0  0  0
    9.2739    0.8912   -2.0540 F   0  0  0  0  0  0  0  0  0  0  0  0
   -1.3041   -4.8491    2.2040 S   0  0  0  0  0  0  0  0  0  0  0  0
   -2.6548   -5.7714    2.0540 F   0  0  0  0  0  0  0  0  0  0  0  0
   -1.8166   -4.3110    3.6580 F   0  0  0  0  0  0  0  0  0  0  0  0
   -0.5767   -6.0606    2.9366 F   0  0  0  0  0  0  0  0  0  0  0  0
    0.1242   -3.9839    2.3239 F   0  0  0  0  0  0  0  0  0  0  0  0
   -0.7548   -5.4496    0.7642 F   0  0  0  0  0  0  0  0  0  0  0  0
   -2.8902    5.6415    0.8002 S   0  0  0  0  0  0  0  0  0  0  0  0
   -4.5201    5.8441    0.6886 F   0  0  0  0  0  0  0  0  0  0  0  0
   -3.0951    4.9034    2.2665 F   0  0  0  0  0  0  0  0  0  0  0  0
   -2.8289    7.0474    1.5533 F   0  0  0  0  0  0  0  0  0  0  0  0
   -1.2625    5.5300    1.0264 F   0  0  0  0  0  0  0  0  0  0  0  0
   -2.6955    6.4131   -0.6230 F   0  0  0  0  0  0  0  0  0  0  0  0
   -8.0438   -1.4537   -4.6105 S   0  0  0  0  0  0  0  0  0  0  0  0
   -7.5795   -0.2529   -5.6309 F   0  0  0  0  0  0  0  0  0  0  0  0
   -9.0532   -0.4080   -3.8476 F   0  0  0  0  0  0  0  0  0  0  0  0
   -9.2202   -1.8178   -5.6167 F   0  0  0  0  0  0  0  0  0  0  0  0
   -8.5458   -2.6675   -3.6256 F   0  0  0  0  0  0  0  0  0  0  0  0
   -7.0711   -2.5116   -5.4070 F   0  0  0  0  0  0  0  0  0  0  0  0
   -3.0022   -4.5826   -0.2316 H   0  0  0  0  0  0  0  0  0  0  0  0
   -6.1099   -3.0821   -3.1430 H   0  0  0  0  0  0  0  0  0  0  0  0
   -7.0639    1.0811   -3.5442 H   0  0  0  0  0  0  0  0  0  0  0  0
   -1.3608   -2.0712    2.7810 H   0  0  0  0  0  0  0  0  0  0  0  0
   -1.1682    3.3432    0.9093 H   0  0  0  0  0  0  0  0  0  0  0  0
    6.8667    1.2338   -2.7041 H   0  0  0  0  0  0  0  0  0  0  0  0
    0.2678   -1.2161    3.0050 H   0  0  0  0  0  0  0  0  0  0  0  0
    7.4088   -1.9308    0.1411 H   0  0  0  0  0  0  0  0  0  0  0  0
    3.2513    3.9385   -2.6556 H   0  0  0  0  0  0  0  0  0  0  0  0
    4.1975   -2.8793    3.3862 H   0  0  0  0  0  0  0  0  0  0  0  0
   -4.8200    4.3523   -1.0909 H   0  0  0  0  0  0  0  0  0  0  0  0
    0.5434    3.9944    0.6215 H   0  0  0  0  0  0  0  0  0  0  0  0
  1  2  2  0  0  0  0
  1 95  1  0  0  0  0
  2  3  1  0  0  0  0
  3  4  2  0  0  0  0
  3  7  1  0  0  0  0
  4  5  1  0  0  0  0
  5  6  2  0  0  0  0
  5 92  1  0  0  0  0
  6 48  1  0  0  0  0
  6  1  1  0  0  0  0
  7 11  2  0  0  0  0
  8  7  1  0  0  0  0
  8  9  1  0  0  0  0
  9 10  2  0  0  0  0
 10  4  1  0  0  0  0
 11 12  1  0  0  0  0
 11 18  1  0  0  0  0
 12 13  2  0  0  0  0
 13 14  1  0  0  0  0
 14  8  1  0  0  0  0
 14 15  2  0  0  0  0
 15 16  1  0  0  0  0
 15 91  1  0  0  0  0
 16 60  1  0  0  0  0
 16 17  2  0  0  0  0
 17  9  1  0  0  0  0
 17 89  1  0  0  0  0
 18 19  3  0  0  0  0
 19 20  1  0  0  0  0
 19 90  1  0  0  0  0
 20 54  1  0  0  0  0
 20 21  2  0  0  0  0
 21 12  1  0  0  0  0
 21 93  1  0  0  0  0
 22  2  1  0  0  0  0
 23 18  1  0  0  0  0
 24 25  2  0  0  0  0
 24 87  1  0  0  0  0
 25 26  1  0  0  0  0
 25 45  1  0  0  0  0
 26 27  2  0  0  0  0
 26 30  1  0  0  0  0
 27 28  1  0  0  0  0
 28 29  2  0  0  0  0
 28 84  1  0  0  0  0
 29 66  1  0  0  0  0
 29 24  1  0  0  0  0
 30 34  2  0  0  0  0
 31 30  1  0  0  0  0
 31 32  1  0  0  0  0
 32 33  2  0  0  0  0
 33 27  1  0  0  0  0
 34 35  1  0  0  0  0
 34 41  1  0  0  0  0
 35 36  2  0  0  0  0
 36 37  1  0  0  0  0
 37 31  1  0  0  0  0
 37 38  2  0  0  0  0
 38 39  1  0  0  0  0
 38 86  1  0  0  0  0
 39 78  1  0  0  0  0
 39 40  2  0  0  0  0
 40 32  1  0  0  0  0
 40 85  1  0  0  0  0
 41 42  2  0  0  0  0
 41 46  1  0  0  0  0
 42 43  1  0  0  0  0
 42 88  1  0  0  0  0
 43 72  1  0  0  0  0
 43 44  2  0  0  0  0
 44 35  1  0  0  0  0
 44 94  1  0  0  0  0
 47 46  1  0  0  0  0
 47 22  1  0  0  0  0
 47 45  1  0  0  0  0
 47 23  1  0  0  0  0
 48 49  1  0  0  0  0
 48 50  1  0  0  0  0
 48 51  1  0  0  0  0
 48 52  1  0  0  0  0
 48 53  1  0  0  0  0
 54 55  1  0  0  0  0
 54 56  1  0  0  0  0
 54 57  1  0  0  0  0
 54 58  1  0  0  0  0
 54 59  1  0  0  0  0
 60 61  1  0  0  0  0
 60 62  1  0  0  0  0
 60 63  1  0  0  0  0
 60 64  1  0  0  0  0
 60 65  1  0  0  0  0
 66 67  1  0  0  0  0
 66 68  1  0  0  0  0
 66 69  1  0  0  0  0
 66 70  1  0  0  0  0
 66 71  1  0  0  0  0
 72 73  1  0  0  0  0
 72 74  1  0  0  0  0
 72 75  1  0  0  0  0
 72 76  1  0  0  0  0
 72 77  1  0  0  0  0
 78 79  1  0  0  0  0
 78 80  1  0  0  0  0
 78 81  1  0  0  0  0
 78 82  1  0  0  0  0
 78 83  1  0  0  0  0
M  CHG  1   1   1
M  END
