energy: -278.779909384700 gnorm: 0.000075040448 xtb: 6.7.1 (edcfbbe)_energy: -278.779909384700 gnorm: 0.000075040448 xtb: 6.7.1 (edcfbbe)
 OpenBabel03212514103D

190212  0  0  0  0  0  0  0  0999 V2000
    0.8378    3.5851    1.9489 C   0  0  0  0  0  0  0  0  0  0  0  0
    1.0191    2.2494    1.5569 C   0  0  0  0  0  0  0  0  0  0  0  0
    2.1209    1.8940    0.7202 C   0  0  0  0  0  0  0  0  0  0  0  0
    2.7434    3.0101    0.0315 C   0  0  0  0  0  0  0  0  0  0  0  0
    2.4547    4.3614    0.3724 C   0  0  0  0  0  0  0  0  0  0  0  0
    1.5721    4.6010    1.3741 C   0  0  0  0  0  0  0  0  0  0  0  0
    2.7447    0.6000    0.5622 C   0  0  0  0  0  0  0  0  0  0  0  0
    3.8404    0.5678   -0.3395 C   0  0  1  0  0  0  0  0  0  0  0  0
    4.1401    1.6794   -1.1829 C   0  0  0  0  0  0  0  0  0  0  0  0
    3.6242    2.8719   -0.9442 N   0  0  0  0  0  0  0  0  0  0  0  0
    2.5493   -0.6245    1.3251 C   0  0  0  0  0  0  0  0  0  0  0  0
    3.7262   -1.4713    1.4370 C   0  0  0  0  0  0  0  0  0  0  0  0
    4.7398   -1.4356    0.5916 N   0  3  0  0  0  0  0  0  0  0  0  0
    4.7390   -0.5382   -0.3837 C   0  0  0  0  0  0  0  0  0  0  0  0
    5.7189   -0.6287   -1.3982 C   0  0  0  0  0  0  0  0  0  0  0  0
    5.8268    0.3935   -2.3092 C   0  0  0  0  0  0  0  0  0  0  0  0
    5.0962    1.5493   -2.2211 C   0  0  0  0  0  0  0  0  0  0  0  0
    1.3814   -1.1756    1.9292 C   0  0  0  0  0  0  0  0  0  0  0  0
    1.5102   -2.2211    2.8643 C   0  0  0  0  0  0  0  0  0  0  0  0
    2.7182   -2.8309    3.1161 C   0  0  0  0  0  0  0  0  0  0  0  0
    3.8289   -2.5116    2.4059 C   0  0  0  0  0  0  0  0  0  0  0  0
    0.1050    1.4123    1.9945 O   0  0  0  0  0  0  0  0  0  0  0  0
    0.1285   -0.9219    1.6244 O   0  0  0  0  0  0  0  0  0  0  0  0
   -2.4091   -1.8448    2.3260 C   0  0  0  0  0  0  0  0  0  0  0  0
   -2.4593   -0.8909    1.3044 C   0  0  0  0  0  0  0  0  0  0  0  0
   -3.0759   -1.2073    0.0693 C   0  0  0  0  0  0  0  0  0  0  0  0
   -3.7036   -2.5034   -0.0390 C   0  0  0  0  0  0  0  0  0  0  0  0
   -3.5277   -3.4849    0.9762 C   0  0  0  0  0  0  0  0  0  0  0  0
   -2.8962   -3.1197    2.1206 C   0  0  0  0  0  0  0  0  0  0  0  0
   -3.2305   -0.3020   -1.0412 C   0  0  0  0  0  0  0  0  0  0  0  0
   -4.2528   -0.6432   -1.9573 C   0  0  1  0  0  0  0  0  0  0  0  0
   -4.8577   -1.9357   -1.9261 C   0  0  0  0  0  0  0  0  0  0  0  0
   -4.5100   -2.8510   -1.0311 N   0  0  0  0  0  0  0  0  0  0  0  0
   -2.5209    0.9247   -1.3128 C   0  0  0  0  0  0  0  0  0  0  0  0
   -3.1775    1.8500   -2.2115 C   0  0  0  0  0  0  0  0  0  0  0  0
   -4.2345    1.5415   -2.9487 N   0  0  0  0  0  0  0  0  0  0  0  0
   -4.7122    0.3058   -2.9169 C   0  0  0  0  0  0  0  0  0  0  0  0
   -5.7423   -0.0476   -3.8228 C   0  0  0  0  0  0  0  0  0  0  0  0
   -6.2552   -1.3186   -3.7814 C   0  0  0  0  0  0  0  0  0  0  0  0
   -5.8479   -2.2707   -2.8813 C   0  0  0  0  0  0  0  0  0  0  0  0
   -1.2121    1.2827   -0.8762 C   0  0  0  0  0  0  0  0  0  0  0  0
   -0.7232    2.5556   -1.1711 C   0  0  0  0  0  0  0  0  0  0  0  0
   -1.4746    3.4742   -1.8742 C   0  0  0  0  0  0  0  0  0  0  0  0
   -2.6767    3.1672   -2.4150 C   0  0  0  0  0  0  0  0  0  0  0  0
   -1.9035    0.2941    1.5342 O   0  0  0  0  0  0  0  0  0  0  0  0
   -0.3772    0.4534   -0.2527 O   0  0  0  0  0  0  0  0  0  0  0  0
   -0.4705    0.3289    1.2262 B   0  5  1  0  0  0  0  0  0  0  0  0
    1.3174    6.3300    1.9711 S   0  0  0  0  0  0  0  0  0  0  0  0
   -0.3192    6.2004    2.0275 F   0  0  0  0  0  0  0  0  0  0  0  0
    1.3785    5.8097    3.5479 F   0  0  0  0  0  0  0  0  0  0  0  0
    1.1539    7.8241    2.5501 F   0  0  0  0  0  0  0  0  0  0  0  0
    2.9591    6.5703    2.0214 F   0  0  0  0  0  0  0  0  0  0  0  0
    1.2969    6.9753    0.4659 F   0  0  0  0  0  0  0  0  0  0  0  0
    2.7468   -4.1922    4.3672 S   0  0  0  0  0  0  0  0  0  0  0  0
    3.8087   -5.0823    3.4590 F   0  0  0  0  0  0  0  0  0  0  0  0
    4.0364   -3.4981    5.1447 F   0  0  0  0  0  0  0  0  0  0  0  0
    2.7982   -5.3681    5.4595 F   0  0  0  0  0  0  0  0  0  0  0  0
    1.7183   -3.3849    5.3666 F   0  0  0  0  0  0  0  0  0  0  0  0
    1.4951   -4.9723    3.6442 F   0  0  0  0  0  0  0  0  0  0  0  0
    7.0612    0.2277   -3.6811 S   0  0  0  0  0  0  0  0  0  0  0  0
    5.9701    0.7823   -4.7901 F   0  0  0  0  0  0  0  0  0  0  0  0
    6.5803   -1.3248   -3.9836 F   0  0  0  0  0  0  0  0  0  0  0  0
    8.1202    0.0751   -4.8757 F   0  0  0  0  0  0  0  0  0  0  0  0
    8.2204   -0.3402   -2.6520 F   0  0  0  0  0  0  0  0  0  0  0  0
    7.6118    1.7664   -3.4586 F   0  0  0  0  0  0  0  0  0  0  0  0
   -2.6448   -4.3638    3.4703 S   0  0  0  0  0  0  0  0  0  0  0  0
   -2.0003   -5.4495    2.4050 F   0  0  0  0  0  0  0  0  0  0  0  0
   -4.1432   -5.0280    3.2325 F   0  0  0  0  0  0  0  0  0  0  0  0
   -2.4197   -5.4409    4.6360 F   0  0  0  0  0  0  0  0  0  0  0  0
   -3.2775   -3.3426    4.6074 F   0  0  0  0  0  0  0  0  0  0  0  0
   -1.1342   -3.7717    3.8013 F   0  0  0  0  0  0  0  0  0  0  0  0
   -0.7555    5.1686   -2.0270 S   0  0  0  0  0  0  0  0  0  0  0  0
   -1.0296    5.2219   -3.6595 F   0  0  0  0  0  0  0  0  0  0  0  0
   -2.2169    5.8808   -1.7567 F   0  0  0  0  0  0  0  0  0  0  0  0
   -0.1164    6.6294   -2.1351 F   0  0  0  0  0  0  0  0  0  0  0  0
   -0.4166    5.1737   -0.3979 F   0  0  0  0  0  0  0  0  0  0  0  0
    0.7730    4.5611   -2.2992 F   0  0  0  0  0  0  0  0  0  0  0  0
   -7.5796   -1.7704   -4.9977 S   0  0  0  0  0  0  0  0  0  0  0  0
   -6.7524   -1.0631   -6.2409 F   0  0  0  0  0  0  0  0  0  0  0  0
   -8.3836   -0.3520   -4.7342 F   0  0  0  0  0  0  0  0  0  0  0  0
   -8.7234   -2.1617   -6.0520 F   0  0  0  0  0  0  0  0  0  0  0  0
   -8.4837   -2.5039   -3.8265 F   0  0  0  0  0  0  0  0  0  0  0  0
   -6.8524   -3.2153   -5.3332 F   0  0  0  0  0  0  0  0  0  0  0  0
   -3.9488   -4.4641    0.8258 H   0  0  0  0  0  0  0  0  0  0  0  0
   -6.2705   -3.2619   -2.8689 H   0  0  0  0  0  0  0  0  0  0  0  0
   -6.0985    0.6898   -4.5230 H   0  0  0  0  0  0  0  0  0  0  0  0
   -1.9529   -1.5654    3.2603 H   0  0  0  0  0  0  0  0  0  0  0  0
    0.2621    2.8230   -0.8365 H   0  0  0  0  0  0  0  0  0  0  0  0
    5.2431    2.3748   -2.8984 H   0  0  0  0  0  0  0  0  0  0  0  0
    0.6164   -2.5717    3.3506 H   0  0  0  0  0  0  0  0  0  0  0  0
    6.3628   -1.4922   -1.4302 H   0  0  0  0  0  0  0  0  0  0  0  0
    2.9580    5.1432   -0.1690 H   0  0  0  0  0  0  0  0  0  0  0  0
    4.7576   -3.0502    2.4808 H   0  0  0  0  0  0  0  0  0  0  0  0
   -3.2433    3.8481   -3.0262 H   0  0  0  0  0  0  0  0  0  0  0  0
    0.0597    3.8001    2.6623 H   0  0  0  0  0  0  0  0  0  0  0  0
    0.8378    3.5851    9.9489 C   0  0  0  0  0  0  0  0  0  0  0  0
    1.0191    2.2494    9.5569 C   0  0  0  0  0  0  0  0  0  0  0  0
    2.1209    1.8940    8.7202 C   0  0  0  0  0  0  0  0  0  0  0  0
    2.7434    3.0101    8.0315 C   0  0  0  0  0  0  0  0  0  0  0  0
    2.4547    4.3614    8.3724 C   0  0  0  0  0  0  0  0  0  0  0  0
    1.5721    4.6010    9.3741 C   0  0  0  0  0  0  0  0  0  0  0  0
    2.7447    0.6000    8.5622 C   0  0  0  0  0  0  0  0  0  0  0  0
    3.8404    0.5678    7.6605 C   0  0  1  0  0  0  0  0  0  0  0  0
    4.1401    1.6794    6.8171 C   0  0  0  0  0  0  0  0  0  0  0  0
    3.6242    2.8719    7.0558 N   0  0  0  0  0  0  0  0  0  0  0  0
    2.5493   -0.6245    9.3251 C   0  0  0  0  0  0  0  0  0  0  0  0
    3.7262   -1.4713    9.4370 C   0  0  0  0  0  0  0  0  0  0  0  0
    4.7398   -1.4356    8.5916 N   0  3  0  0  0  0  0  0  0  0  0  0
    4.7390   -0.5382    7.6163 C   0  0  0  0  0  0  0  0  0  0  0  0
    5.7189   -0.6287    6.6018 C   0  0  0  0  0  0  0  0  0  0  0  0
    5.8268    0.3935    5.6908 C   0  0  0  0  0  0  0  0  0  0  0  0
    5.0962    1.5493    5.7789 C   0  0  0  0  0  0  0  0  0  0  0  0
    1.3814   -1.1756    9.9292 C   0  0  0  0  0  0  0  0  0  0  0  0
    1.5102   -2.2211   10.8643 C   0  0  0  0  0  0  0  0  0  0  0  0
    2.7182   -2.8309   11.1161 C   0  0  0  0  0  0  0  0  0  0  0  0
    3.8289   -2.5116   10.4059 C   0  0  0  0  0  0  0  0  0  0  0  0
    0.1050    1.4123    9.9945 O   0  0  0  0  0  0  0  0  0  0  0  0
    0.1285   -0.9219    9.6244 O   0  0  0  0  0  0  0  0  0  0  0  0
   -2.4091   -1.8448   10.3260 C   0  0  0  0  0  0  0  0  0  0  0  0
   -2.4593   -0.8909    9.3044 C   0  0  0  0  0  0  0  0  0  0  0  0
   -3.0759   -1.2073    8.0693 C   0  0  0  0  0  0  0  0  0  0  0  0
   -3.7036   -2.5034    7.9610 C   0  0  0  0  0  0  0  0  0  0  0  0
   -3.5277   -3.4849    8.9762 C   0  0  0  0  0  0  0  0  0  0  0  0
   -2.8962   -3.1197   10.1206 C   0  0  0  0  0  0  0  0  0  0  0  0
   -3.2305   -0.3020    6.9588 C   0  0  0  0  0  0  0  0  0  0  0  0
   -4.2528   -0.6432    6.0427 C   0  0  1  0  0  0  0  0  0  0  0  0
   -4.8577   -1.9357    6.0739 C   0  0  0  0  0  0  0  0  0  0  0  0
   -4.5100   -2.8510    6.9689 N   0  0  0  0  0  0  0  0  0  0  0  0
   -2.5209    0.9247    6.6872 C   0  0  0  0  0  0  0  0  0  0  0  0
   -3.1775    1.8500    5.7885 C   0  0  0  0  0  0  0  0  0  0  0  0
   -4.2345    1.5415    5.0513 N   0  0  0  0  0  0  0  0  0  0  0  0
   -4.7122    0.3058    5.0831 C   0  0  0  0  0  0  0  0  0  0  0  0
   -5.7423   -0.0476    4.1772 C   0  0  0  0  0  0  0  0  0  0  0  0
   -6.2552   -1.3186    4.2186 C   0  0  0  0  0  0  0  0  0  0  0  0
   -5.8479   -2.2707    5.1187 C   0  0  0  0  0  0  0  0  0  0  0  0
   -1.2121    1.2827    7.1238 C   0  0  0  0  0  0  0  0  0  0  0  0
   -0.7232    2.5556    6.8289 C   0  0  0  0  0  0  0  0  0  0  0  0
   -1.4746    3.4742    6.1258 C   0  0  0  0  0  0  0  0  0  0  0  0
   -2.6767    3.1672    5.5850 C   0  0  0  0  0  0  0  0  0  0  0  0
   -1.9035    0.2941    9.5342 O   0  0  0  0  0  0  0  0  0  0  0  0
   -0.3772    0.4534    7.7473 O   0  0  0  0  0  0  0  0  0  0  0  0
   -0.4705    0.3289    9.2262 B   0  5  1  0  0  0  0  0  0  0  0  0
    1.3174    6.3300    9.9711 S   0  0  0  0  0  0  0  0  0  0  0  0
   -0.3192    6.2004   10.0275 F   0  0  0  0  0  0  0  0  0  0  0  0
    1.3785    5.8097   11.5479 F   0  0  0  0  0  0  0  0  0  0  0  0
    1.1539    7.8241   10.5501 F   0  0  0  0  0  0  0  0  0  0  0  0
    2.9591    6.5703   10.0214 F   0  0  0  0  0  0  0  0  0  0  0  0
    1.2969    6.9753    8.4659 F   0  0  0  0  0  0  0  0  0  0  0  0
    2.7468   -4.1922   12.3672 S   0  0  0  0  0  0  0  0  0  0  0  0
    3.8087   -5.0823   11.4590 F   0  0  0  0  0  0  0  0  0  0  0  0
    4.0364   -3.4981   13.1447 F   0  0  0  0  0  0  0  0  0  0  0  0
    2.7982   -5.3681   13.4595 F   0  0  0  0  0  0  0  0  0  0  0  0
    1.7183   -3.3849   13.3666 F   0  0  0  0  0  0  0  0  0  0  0  0
    1.4951   -4.9723   11.6442 F   0  0  0  0  0  0  0  0  0  0  0  0
    7.0612    0.2277    4.3189 S   0  0  0  0  0  0  0  0  0  0  0  0
    5.9701    0.7823    3.2099 F   0  0  0  0  0  0  0  0  0  0  0  0
    6.5803   -1.3248    4.0164 F   0  0  0  0  0  0  0  0  0  0  0  0
    8.1202    0.0751    3.1243 F   0  0  0  0  0  0  0  0  0  0  0  0
    8.2204   -0.3402    5.3480 F   0  0  0  0  0  0  0  0  0  0  0  0
    7.6118    1.7664    4.5414 F   0  0  0  0  0  0  0  0  0  0  0  0
   -2.6448   -4.3638   11.4703 S   0  0  0  0  0  0  0  0  0  0  0  0
   -2.0003   -5.4495   10.4050 F   0  0  0  0  0  0  0  0  0  0  0  0
   -4.1432   -5.0280   11.2325 F   0  0  0  0  0  0  0  0  0  0  0  0
   -2.4197   -5.4409   12.6360 F   0  0  0  0  0  0  0  0  0  0  0  0
   -3.2775   -3.3426   12.6074 F   0  0  0  0  0  0  0  0  0  0  0  0
   -1.1342   -3.7717   11.8013 F   0  0  0  0  0  0  0  0  0  0  0  0
   -0.7555    5.1686    5.9730 S   0  0  0  0  0  0  0  0  0  0  0  0
   -1.0296    5.2219    4.3405 F   0  0  0  0  0  0  0  0  0  0  0  0
   -2.2169    5.8808    6.2433 F   0  0  0  0  0  0  0  0  0  0  0  0
   -0.1164    6.6294    5.8649 F   0  0  0  0  0  0  0  0  0  0  0  0
   -0.4166    5.1737    7.6021 F   0  0  0  0  0  0  0  0  0  0  0  0
    0.7730    4.5611    5.7008 F   0  0  0  0  0  0  0  0  0  0  0  0
   -7.5796   -1.7704    3.0023 S   0  0  0  0  0  0  0  0  0  0  0  0
   -6.7524   -1.0631    1.7591 F   0  0  0  0  0  0  0  0  0  0  0  0
   -8.3836   -0.3520    3.2658 F   0  0  0  0  0  0  0  0  0  0  0  0
   -8.7234   -2.1617    1.9480 F   0  0  0  0  0  0  0  0  0  0  0  0
   -8.4837   -2.5039    4.1735 F   0  0  0  0  0  0  0  0  0  0  0  0
   -6.8524   -3.2153    2.6668 F   0  0  0  0  0  0  0  0  0  0  0  0
   -3.9488   -4.4641    8.8258 H   0  0  0  0  0  0  0  0  0  0  0  0
   -6.2705   -3.2619    5.1311 H   0  0  0  0  0  0  0  0  0  0  0  0
   -6.0985    0.6898    3.4770 H   0  0  0  0  0  0  0  0  0  0  0  0
   -1.9529   -1.5654   11.2603 H   0  0  0  0  0  0  0  0  0  0  0  0
    0.2621    2.8230    7.1635 H   0  0  0  0  0  0  0  0  0  0  0  0
    5.2431    2.3748    5.1016 H   0  0  0  0  0  0  0  0  0  0  0  0
    0.6164   -2.5717   11.3506 H   0  0  0  0  0  0  0  0  0  0  0  0
    6.3628   -1.4922    6.5698 H   0  0  0  0  0  0  0  0  0  0  0  0
    2.9580    5.1432    7.8310 H   0  0  0  0  0  0  0  0  0  0  0  0
    4.7576   -3.0502   10.4808 H   0  0  0  0  0  0  0  0  0  0  0  0
   -3.2433    3.8481    4.9738 H   0  0  0  0  0  0  0  0  0  0  0  0
    0.0597    3.8001   10.6623 H   0  0  0  0  0  0  0  0  0  0  0  0
  1  2  2  0  0  0  0
  1 95  1  0  0  0  0
  2  3  1  0  0  0  0
  3  4  2  0  0  0  0
  3  7  1  0  0  0  0
  4  5  1  0  0  0  0
  5  6  2  0  0  0  0
  5 92  1  0  0  0  0
  6 48  1  0  0  0  0
  6  1  1  0  0  0  0
  7 11  2  0  0  0  0
  8  7  1  1  0  0  0
  8  9  1  0  0  0  0
  9 10  2  0  0  0  0
 10  4  1  0  0  0  0
 11 12  1  0  0  0  0
 11 18  1  0  0  0  0
 12 13  2  0  0  0  0
 13 14  1  0  0  0  0
 14  8  1  0  0  0  0
 14 15  2  0  0  0  0
 15 16  1  0  0  0  0
 15 91  1  0  0  0  0
 16 60  1  0  0  0  0
 16 17  2  0  0  0  0
 17  9  1  0  0  0  0
 17 89  1  0  0  0  0
 18 19  3  0  0  0  0
 19 20  1  0  0  0  0
 19 90  1  0  0  0  0
 20 54  1  0  0  0  0
 20 21  2  0  0  0  0
 21 12  1  0  0  0  0
 21 93  1  0  0  0  0
 22  2  1  0  0  0  0
 23 18  1  0  0  0  0
 24 25  2  0  0  0  0
 24 87  1  0  0  0  0
 25 26  1  0  0  0  0
 25 45  1  0  0  0  0
 26 27  2  0  0  0  0
 26 30  1  0  0  0  0
 27 28  1  0  0  0  0
 28 29  2  0  0  0  0
 28 84  1  0  0  0  0
 29 66  1  0  0  0  0
 29 24  1  0  0  0  0
 30 34  2  0  0  0  0
 31 30  1  1  0  0  0
 31 32  1  0  0  0  0
 32 33  2  0  0  0  0
 33 27  1  0  0  0  0
 34 35  1  0  0  0  0
 34 41  1  0  0  0  0
 35 36  2  0  0  0  0
 36 37  1  0  0  0  0
 37 31  1  0  0  0  0
 37 38  2  0  0  0  0
 38 39  1  0  0  0  0
 38 86  1  0  0  0  0
 39 78  1  0  0  0  0
 39 40  2  0  0  0  0
 40 32  1  0  0  0  0
 40 85  1  0  0  0  0
 41 42  2  0  0  0  0
 41 46  1  0  0  0  0
 42 43  1  0  0  0  0
 42 88  1  0  0  0  0
 43 72  1  0  0  0  0
 43 44  2  0  0  0  0
 44 35  1  0  0  0  0
 44 94  1  0  0  0  0
 47 46  1  6  0  0  0
 47 22  1  0  0  0  0
 47 45  1  0  0  0  0
 47 23  1  0  0  0  0
 48 49  1  0  0  0  0
 48 50  1  0  0  0  0
 48 51  1  0  0  0  0
 48 52  1  0  0  0  0
 48 53  1  0  0  0  0
 54 55  1  0  0  0  0
 54 56  1  0  0  0  0
 54 57  1  0  0  0  0
 54 58  1  0  0  0  0
 54 59  1  0  0  0  0
 60 61  1  0  0  0  0
 60 62  1  0  0  0  0
 60 63  1  0  0  0  0
 60 64  1  0  0  0  0
 60 65  1  0  0  0  0
 66 67  1  0  0  0  0
 66 68  1  0  0  0  0
 66 69  1  0  0  0  0
 66 70  1  0  0  0  0
 66 71  1  0  0  0  0
 72 73  1  0  0  0  0
 72 74  1  0  0  0  0
 72 75  1  0  0  0  0
 72 76  1  0  0  0  0
 72 77  1  0  0  0  0
 78 79  1  0  0  0  0
 78 80  1  0  0  0  0
 78 81  1  0  0  0  0
 78 82  1  0  0  0  0
 78 83  1  0  0  0  0
 96 97  2  0  0  0  0
 96190  1  0  0  0  0
 97 98  1  0  0  0  0
 98 99  2  0  0  0  0
 98102  1  0  0  0  0
 99100  1  0  0  0  0
100101  2  0  0  0  0
100187  1  0  0  0  0
101143  1  0  0  0  0
101 96  1  0  0  0  0
102106  2  0  0  0  0
103102  1  1  0  0  0
103104  1  0  0  0  0
104105  2  0  0  0  0
105 99  1  0  0  0  0
106107  1  0  0  0  0
106113  1  0  0  0  0
107108  2  0  0  0  0
108109  1  0  0  0  0
109103  1  0  0  0  0
109110  2  0  0  0  0
110111  1  0  0  0  0
110186  1  0  0  0  0
111155  1  0  0  0  0
111112  2  0  0  0  0
112104  1  0  0  0  0
112184  1  0  0  0  0
113114  3  0  0  0  0
114115  1  0  0  0  0
114185  1  0  0  0  0
115149  1  0  0  0  0
115116  2  0  0  0  0
116107  1  0  0  0  0
116188  1  0  0  0  0
117 97  1  0  0  0  0
118113  1  0  0  0  0
119120  2  0  0  0  0
119182  1  0  0  0  0
120121  1  0  0  0  0
120140  1  0  0  0  0
121122  2  0  0  0  0
121125  1  0  0  0  0
122123  1  0  0  0  0
123124  2  0  0  0  0
123179  1  0  0  0  0
124161  1  0  0  0  0
124119  1  0  0  0  0
125129  2  0  0  0  0
126125  1  1  0  0  0
126127  1  0  0  0  0
127128  2  0  0  0  0
128122  1  0  0  0  0
129130  1  0  0  0  0
129136  1  0  0  0  0
130131  2  0  0  0  0
131132  1  0  0  0  0
132126  1  0  0  0  0
132133  2  0  0  0  0
133134  1  0  0  0  0
133181  1  0  0  0  0
134173  1  0  0  0  0
134135  2  0  0  0  0
135127  1  0  0  0  0
135180  1  0  0  0  0
136137  2  0  0  0  0
136141  1  0  0  0  0
137138  1  0  0  0  0
137183  1  0  0  0  0
138167  1  0  0  0  0
138139  2  0  0  0  0
139130  1  0  0  0  0
139189  1  0  0  0  0
142141  1  6  0  0  0
142117  1  0  0  0  0
142140  1  0  0  0  0
142118  1  0  0  0  0
143144  1  0  0  0  0
143145  1  0  0  0  0
143146  1  0  0  0  0
143147  1  0  0  0  0
143148  1  0  0  0  0
149150  1  0  0  0  0
149151  1  0  0  0  0
149152  1  0  0  0  0
149153  1  0  0  0  0
149154  1  0  0  0  0
155156  1  0  0  0  0
155157  1  0  0  0  0
155158  1  0  0  0  0
155159  1  0  0  0  0
155160  1  0  0  0  0
161162  1  0  0  0  0
161163  1  0  0  0  0
161164  1  0  0  0  0
161165  1  0  0  0  0
161166  1  0  0  0  0
167168  1  0  0  0  0
167169  1  0  0  0  0
167170  1  0  0  0  0
167171  1  0  0  0  0
167172  1  0  0  0  0
173174  1  0  0  0  0
173175  1  0  0  0  0
173176  1  0  0  0  0
173177  1  0  0  0  0
173178  1  0  0  0  0
M  CHG  4  13   1  47  -1 108   1 142  -1
M  END
