 xtb: 6.7.1 (edcfbbe)
          03212514273D

190212  0     0  0            999 V2000
    0.0574    4.7680    1.2456 C   0  0  0  0  0  0  0  0  0  0  0  0
    0.1927    3.4238    0.8682 C   0  0  0  0  0  0  0  0  0  0  0  0
    1.4942    2.8563    0.8860 C   0  0  0  0  0  0  0  0  0  0  0  0
    2.5818    3.8066    0.7382 C   0  0  0  0  0  0  0  0  0  0  0  0
    2.4198    5.1541    1.1707 C   0  0  0  0  0  0  0  0  0  0  0  0
    1.1664    5.5537    1.4985 C   0  0  0  0  0  0  0  0  0  0  0  0
    1.9228    1.4779    0.9659 C   0  0  0  0  0  0  0  0  0  0  0  0
    3.1619    1.1978    0.3483 C   0  0  0  0  0  0  0  0  0  0  0  0
    3.9483    2.2457   -0.2120 C   0  0  0  0  0  0  0  0  0  0  0  0
    3.7098    3.5045    0.1341 N   0  0  0  0  0  0  0  0  0  0  0  0
    1.3627    0.4180    1.7478 C   0  0  0  0  0  0  0  0  0  0  0  0
    2.1697   -0.7631    1.9282 C   0  0  0  0  0  0  0  0  0  0  0  0
    3.1946   -1.0615    1.1416 N   0  0  0  0  0  0  0  0  0  0  0  0
    3.6671   -0.1332    0.3237 C   0  0  0  0  0  0  0  0  0  0  0  0
    4.7502   -0.4268   -0.5444 C   0  0  0  0  0  0  0  0  0  0  0  0
    5.3606    0.5999   -1.2157 C   0  0  0  0  0  0  0  0  0  0  0  0
    5.0481    1.9272   -1.0336 C   0  0  0  0  0  0  0  0  0  0  0  0
    0.1427    0.4658    2.4825 C   0  0  0  0  0  0  0  0  0  0  0  0
    0.0076   -0.3369    3.6133 C   0  0  0  0  0  0  0  0  0  0  0  0
    0.9037   -1.3567    3.8567 C   0  0  0  0  0  0  0  0  0  0  0  0
    1.9145   -1.6635    3.0067 C   0  0  0  0  0  0  0  0  0  0  0  0
   -0.9065    2.8277    0.4427 O   0  0  0  0  0  0  0  0  0  0  0  0
   -0.8911    1.2020    2.1608 O   0  0  0  0  0  0  0  0  0  0  0  0
   -3.1309   -0.6293    1.8521 C   0  0  0  0  0  0  0  0  0  0  0  0
   -3.0462    0.0034    0.6133 C   0  0  0  0  0  0  0  0  0  0  0  0
   -3.3217   -0.7537   -0.5479 C   0  0  0  0  0  0  0  0  0  0  0  0
   -4.0753   -1.9720   -0.3897 C   0  0  0  0  0  0  0  0  0  0  0  0
   -4.1008   -2.6126    0.8825 C   0  0  0  0  0  0  0  0  0  0  0  0
   -3.5459   -1.9455    1.9249 C   0  0  0  0  0  0  0  0  0  0  0  0
   -2.9145   -0.4197   -1.8828 C   0  0  0  0  0  0  0  0  0  0  0  0
   -3.6896   -0.9951   -2.9093 C   0  0  0  0  0  0  0  0  0  0  0  0
   -4.6641   -1.9933   -2.6004 C   0  0  0  0  0  0  0  0  0  0  0  0
   -4.7372   -2.5360   -1.3892 N   0  0  0  0  0  0  0  0  0  0  0  0
   -1.7422    0.3103   -2.2807 C   0  0  0  0  0  0  0  0  0  0  0  0
   -1.5969    0.5771   -3.6926 C   0  0  0  0  0  0  0  0  0  0  0  0
   -2.4856    0.2027   -4.6079 N   0  0  0  0  0  0  0  0  0  0  0  0
   -3.4833   -0.5981   -4.2629 C   0  0  0  0  0  0  0  0  0  0  0  0
   -4.3635   -1.0851   -5.2632 C   0  0  0  0  0  0  0  0  0  0  0  0
   -5.3281   -1.9921   -4.9073 C   0  0  0  0  0  0  0  0  0  0  0  0
   -5.4924   -2.4860   -3.6358 C   0  0  0  0  0  0  0  0  0  0  0  0
   -0.6482    0.6486   -1.4344 C   0  0  0  0  0  0  0  0  0  0  0  0
    0.4959    1.2016   -2.0028 C   0  0  0  0  0  0  0  0  0  0  0  0
    0.5773    1.4756   -3.3478 C   0  0  0  0  0  0  0  0  0  0  0  0
   -0.4336    1.2170   -4.2125 C   0  0  0  0  0  0  0  0  0  0  0  0
   -2.6689    1.2785    0.5340 O   0  0  0  0  0  0  0  0  0  0  0  0
   -0.5983    0.4282   -0.1227 O   0  0  0  0  0  0  0  0  0  0  0  0
   -1.2475    1.4742    0.7617 B   0  0  0  0  0  0  0  0  0  0  0  0
    0.8947    7.1852    2.3005 S   0  0  0  0  0  0  0  0  0  0  0  0
   -0.1654    6.5433    3.3830 F   0  0  0  0  0  0  0  0  0  0  0  0
    2.1522    6.9892    3.3365 F   0  0  0  0  0  0  0  0  0  0  0  0
    0.6366    8.6204    2.9903 F   0  0  0  0  0  0  0  0  0  0  0  0
    1.9141    7.9558    1.2465 F   0  0  0  0  0  0  0  0  0  0  0  0
   -0.3795    7.5362    1.2964 F   0  0  0  0  0  0  0  0  0  0  0  0
    0.7005   -2.2192    5.4904 S   0  0  0  0  0  0  0  0  0  0  0  0
    0.1679   -3.6583    4.9455 F   0  0  0  0  0  0  0  0  0  0  0  0
    2.2599   -2.8020    5.4675 F   0  0  0  0  0  0  0  0  0  0  0  0
    0.6107   -2.7737    7.0198 F   0  0  0  0  0  0  0  0  0  0  0  0
    1.3218   -0.8016    6.1892 F   0  0  0  0  0  0  0  0  0  0  0  0
   -0.8445   -1.6645    5.7645 F   0  0  0  0  0  0  0  0  0  0  0  0
    6.6777    0.1799   -2.4377 S   0  0  0  0  0  0  0  0  0  0  0  0
    6.0962    1.2348   -3.5481 F   0  0  0  0  0  0  0  0  0  0  0  0
    5.7659   -1.0369   -3.0806 F   0  0  0  0  0  0  0  0  0  0  0  0
    7.8297   -0.2100   -3.4927 F   0  0  0  0  0  0  0  0  0  0  0  0
    7.3643   -0.9164   -1.4027 F   0  0  0  0  0  0  0  0  0  0  0  0
    7.6860    1.3501   -1.8614 F   0  0  0  0  0  0  0  0  0  0  0  0
   -3.1399   -2.8384    3.5010 S   0  0  0  0  0  0  0  0  0  0  0  0
   -3.0656   -4.3157    2.7680 F   0  0  0  0  0  0  0  0  0  0  0  0
   -4.7255   -3.1087    3.9263 F   0  0  0  0  0  0  0  0  0  0  0  0
   -2.7433   -3.5604    4.8871 F   0  0  0  0  0  0  0  0  0  0  0  0
   -3.1711   -1.4184    4.3982 F   0  0  0  0  0  0  0  0  0  0  0  0
   -1.5056   -2.6002    3.1998 F   0  0  0  0  0  0  0  0  0  0  0  0
    2.2008    2.2002   -3.8658 S   0  0  0  0  0  0  0  0  0  0  0  0
    2.2985    1.2453   -5.2066 F   0  0  0  0  0  0  0  0  0  0  0  0
    1.4798    3.3927   -4.7548 F   0  0  0  0  0  0  0  0  0  0  0  0
    3.6225    2.8328   -4.2564 F   0  0  0  0  0  0  0  0  0  0  0  0
    2.2329    3.2027   -2.5207 F   0  0  0  0  0  0  0  0  0  0  0  0
    3.0433    1.0563   -2.9678 F   0  0  0  0  0  0  0  0  0  0  0  0
   -6.4645   -2.6161   -6.2314 S   0  0  0  0  0  0  0  0  0  0  0  0
   -5.2131   -2.8235   -7.2918 F   0  0  0  0  0  0  0  0  0  0  0  0
   -6.7021   -1.0907   -6.8222 F   0  0  0  0  0  0  0  0  0  0  0  0
   -7.4505   -3.1532   -7.3793 F   0  0  0  0  0  0  0  0  0  0  0  0
   -7.7860   -2.4478   -5.2549 F   0  0  0  0  0  0  0  0  0  0  0  0
   -6.2952   -4.1800   -5.7252 F   0  0  0  0  0  0  0  0  0  0  0  0
   -4.5474   -3.5872    0.9680 H   0  0  0  0  0  0  0  0  0  0  0  0
   -6.2308   -3.2368   -3.4089 H   0  0  0  0  0  0  0  0  0  0  0  0
   -4.2487   -0.7436   -6.2783 H   0  0  0  0  0  0  0  0  0  0  0  0
   -2.8199   -0.0750    2.7176 H   0  0  0  0  0  0  0  0  0  0  0  0
    1.3289    1.4143   -1.3624 H   0  0  0  0  0  0  0  0  0  0  0  0
    5.6080    2.7175   -1.5063 H   0  0  0  0  0  0  0  0  0  0  0  0
   -0.8558   -0.1902    4.2333 H   0  0  0  0  0  0  0  0  0  0  0  0
    5.0736   -1.4490   -0.6605 H   0  0  0  0  0  0  0  0  0  0  0  0
    3.2810    5.7985    1.2057 H   0  0  0  0  0  0  0  0  0  0  0  0
    2.5627   -2.5127    3.1285 H   0  0  0  0  0  0  0  0  0  0  0  0
   -0.3795    1.4156   -5.2687 H   0  0  0  0  0  0  0  0  0  0  0  0
   -0.9388    5.1614    1.3619 H   0  0  0  0  0  0  0  0  0  0  0  0
    1.1275    3.2158   11.2852 C   0  0  0  0  0  0  0  0  0  0  0  0
    1.1398    2.1623   10.3535 C   0  0  0  0  0  0  0  0  0  0  0  0
    2.3248    1.9192    9.5944 C   0  0  0  0  0  0  0  0  0  0  0  0
    3.2138    3.0677    9.5109 C   0  0  0  0  0  0  0  0  0  0  0  0
    3.1913    4.1080   10.4806 C   0  0  0  0  0  0  0  0  0  0  0  0
    2.1634    4.1203   11.3661 C   0  0  0  0  0  0  0  0  0  0  0  0
    2.7615    0.7680    8.8157 C   0  0  0  0  0  0  0  0  0  0  0  0
    3.6091    1.0943    7.7284 C   0  0  0  0  0  0  0  0  0  0  0  0
    4.0335    2.4357    7.4822 C   0  0  0  0  0  0  0  0  0  0  0  0
    3.9971    3.3080    8.4761 N   0  0  0  0  0  0  0  0  0  0  0  0
    2.5303   -0.6471    9.0132 C   0  0  0  0  0  0  0  0  0  0  0  0
    3.2829   -1.5627    8.1790 C   0  0  0  0  0  0  0  0  0  0  0  0
    4.0109   -1.1871    7.1466 N   0  0  0  0  0  0  0  0  0  0  0  0
    4.0726    0.0917    6.8281 C   0  0  0  0  0  0  0  0  0  0  0  0
    4.5917    0.4703    5.5724 C   0  0  0  0  0  0  0  0  0  0  0  0
    4.7207    1.8050    5.2884 C   0  0  0  0  0  0  0  0  0  0  0  0
    4.5396    2.8002    6.2135 C   0  0  0  0  0  0  0  0  0  0  0  0
    1.6477   -1.2564    9.9464 C   0  0  0  0  0  0  0  0  0  0  0  0
    1.5826   -2.6471   10.0672 C   0  0  0  0  0  0  0  0  0  0  0  0
    2.2819   -3.4649    9.2049 C   0  0  0  0  0  0  0  0  0  0  0  0
    3.1661   -2.9761    8.3042 C   0  0  0  0  0  0  0  0  0  0  0  0
   -0.0332    1.5847   10.1972 O   0  0  0  0  0  0  0  0  0  0  0  0
    0.7722   -0.5717   10.6646 O   0  0  0  0  0  0  0  0  0  0  0  0
   -1.8079   -2.4027   10.8363 C   0  0  0  0  0  0  0  0  0  0  0  0
   -2.0405   -1.3361    9.9631 C   0  0  0  0  0  0  0  0  0  0  0  0
   -2.7864   -1.5517    8.7788 C   0  0  0  0  0  0  0  0  0  0  0  0
   -3.4835   -2.8131    8.6640 C   0  0  0  0  0  0  0  0  0  0  0  0
   -3.1645   -3.8954    9.5326 C   0  0  0  0  0  0  0  0  0  0  0  0
   -2.3251   -3.6578   10.5704 C   0  0  0  0  0  0  0  0  0  0  0  0
   -3.0114   -0.5952    7.7250 C   0  0  0  0  0  0  0  0  0  0  0  0
   -4.1778   -0.7998    6.9562 C   0  0  0  0  0  0  0  0  0  0  0  0
   -4.9033   -2.0242    7.0513 C   0  0  0  0  0  0  0  0  0  0  0  0
   -4.4993   -3.0095    7.8413 N   0  0  0  0  0  0  0  0  0  0  0  0
   -2.1440    0.4617    7.2772 C   0  0  0  0  0  0  0  0  0  0  0  0
   -2.6597    1.3511    6.2670 C   0  0  0  0  0  0  0  0  0  0  0  0
   -3.8759    1.2534    5.7436 N   0  0  0  0  0  0  0  0  0  0  0  0
   -4.5877    0.1672    5.9957 C   0  0  0  0  0  0  0  0  0  0  0  0
   -5.7159   -0.0873    5.1773 C   0  0  0  0  0  0  0  0  0  0  0  0
   -6.3520   -1.2948    5.2802 C   0  0  0  0  0  0  0  0  0  0  0  0
   -6.0057   -2.2595    6.1944 C   0  0  0  0  0  0  0  0  0  0  0  0
   -0.7643    0.5928    7.6060 C   0  0  0  0  0  0  0  0  0  0  0  0
    0.0156    1.5360    6.9285 C   0  0  0  0  0  0  0  0  0  0  0  0
   -0.5306    2.3637    5.9782 C   0  0  0  0  0  0  0  0  0  0  0  0
   -1.8469    2.3507    5.6579 C   0  0  0  0  0  0  0  0  0  0  0  0
   -1.5984   -0.1264   10.3061 O   0  0  0  0  0  0  0  0  0  0  0  0
   -0.1326   -0.1684    8.4751 O   0  0  0  0  0  0  0  0  0  0  0  0
   -0.2409    0.1917    9.9266 B   0  0  0  0  0  0  0  0  0  0  0  0
    2.0751    5.4475   12.6451 S   0  0  0  0  0  0  0  0  0  0  0  0
    0.4832    5.7513   12.3280 F   0  0  0  0  0  0  0  0  0  0  0  0
    1.6307    4.3674   13.8147 F   0  0  0  0  0  0  0  0  0  0  0  0
    2.0083    6.5957   13.7702 F   0  0  0  0  0  0  0  0  0  0  0  0
    3.6652    5.2344   13.0487 F   0  0  0  0  0  0  0  0  0  0  0  0
    2.5164    6.6172   11.5667 F   0  0  0  0  0  0  0  0  0  0  0  0
    1.7175   -5.2170    9.0959 S   0  0  0  0  0  0  0  0  0  0  0  0
    1.6456   -5.1778    7.4511 F   0  0  0  0  0  0  0  0  0  0  0  0
    3.2709   -5.7929    8.9680 F   0  0  0  0  0  0  0  0  0  0  0  0
    1.2022   -6.7370    9.0104 F   0  0  0  0  0  0  0  0  0  0  0  0
    1.8083   -5.4198   10.7292 F   0  0  0  0  0  0  0  0  0  0  0  0
    0.1289   -4.7325    9.2008 F   0  0  0  0  0  0  0  0  0  0  0  0
    5.1986    2.2193    3.5601 S   0  0  0  0  0  0  0  0  0  0  0  0
    3.9637    3.2826    3.3228 F   0  0  0  0  0  0  0  0  0  0  0  0
    4.2285    1.0050    2.9447 F   0  0  0  0  0  0  0  0  0  0  0  0
    5.6318    2.5059    2.0222 F   0  0  0  0  0  0  0  0  0  0  0  0
    6.4671    1.1494    3.6007 F   0  0  0  0  0  0  0  0  0  0  0  0
    6.1930    3.4544    4.0074 F   0  0  0  0  0  0  0  0  0  0  0  0
   -1.9421   -5.0072   11.7720 S   0  0  0  0  0  0  0  0  0  0  0  0
   -1.5820   -6.1051   10.6166 F   0  0  0  0  0  0  0  0  0  0  0  0
   -3.5102   -5.5479   11.7600 F   0  0  0  0  0  0  0  0  0  0  0  0
   -1.6228   -6.1434   12.8670 F   0  0  0  0  0  0  0  0  0  0  0  0
   -2.3332   -4.0127   13.0478 F   0  0  0  0  0  0  0  0  0  0  0  0
   -0.3752   -4.5085   11.9235 F   0  0  0  0  0  0  0  0  0  0  0  0
    0.6434    3.4784    5.0773 S   0  0  0  0  0  0  0  0  0  0  0  0
   -0.2503    3.4145    3.6758 F   0  0  0  0  0  0  0  0  0  0  0  0
   -0.1425    4.8357    5.5719 F   0  0  0  0  0  0  0  0  0  0  0  0
    1.6710    4.4094    4.2487 F   0  0  0  0  0  0  0  0  0  0  0  0
    1.6909    3.6125    6.3786 F   0  0  0  0  0  0  0  0  0  0  0  0
    1.5643    2.1586    4.5490 F   0  0  0  0  0  0  0  0  0  0  0  0
   -7.5939   -1.6936    3.9643 S   0  0  0  0  0  0  0  0  0  0  0  0
   -6.4453   -1.4505    2.7724 F   0  0  0  0  0  0  0  0  0  0  0  0
   -8.0436   -0.1020    3.8196 F   0  0  0  0  0  0  0  0  0  0  0  0
   -8.6541   -1.9904    2.7856 F   0  0  0  0  0  0  0  0  0  0  0  0
   -8.8073   -1.9208    5.0638 F   0  0  0  0  0  0  0  0  0  0  0  0
   -7.3047   -3.3079    3.9855 F   0  0  0  0  0  0  0  0  0  0  0  0
   -3.6357   -4.8491    9.3677 H   0  0  0  0  0  0  0  0  0  0  0  0
   -6.4910   -3.2208    6.2239 H   0  0  0  0  0  0  0  0  0  0  0  0
   -5.9870    0.6460    4.4367 H   0  0  0  0  0  0  0  0  0  0  0  0
   -1.2297   -2.2138   11.7262 H   0  0  0  0  0  0  0  0  0  0  0  0
    1.0663    1.5647    7.1410 H   0  0  0  0  0  0  0  0  0  0  0  0
    4.7231    3.8392    5.9970 H   0  0  0  0  0  0  0  0  0  0  0  0
    0.9039   -3.0718   10.7865 H   0  0  0  0  0  0  0  0  0  0  0  0
    4.8242   -0.2995    4.8570 H   0  0  0  0  0  0  0  0  0  0  0  0
    3.9271    4.8903   10.4170 H   0  0  0  0  0  0  0  0  0  0  0  0
    3.6837   -3.5924    7.5899 H   0  0  0  0  0  0  0  0  0  0  0  0
   -2.2866    2.9868    4.9104 H   0  0  0  0  0  0  0  0  0  0  0  0
    0.2561    3.3128   11.9111 H   0  0  0  0  0  0  0  0  0  0  0  0
  1  2  4  0  0  0  0
  2  3  4  0  0  0  0
  3  4  1  0  0  0  0
  4  5  1  0  0  0  0
  1  6  4  0  0  0  0
  5  6  2  0  0  0  0
  3  7  1  0  0  0  0
  7  8  4  0  0  0  0
  8  9  1  0  0  0  0
  4 10  4  0  0  0  0
  9 10  4  0  0  0  0
  7 11  4  0  0  0  0
 11 12  1  0  0  0  0
 12 13  4  0  0  0  0
  8 14  1  0  0  0  0
 13 14  4  0  0  0  0
 14 15  4  0  0  0  0
 15 16  4  0  0  0  0
  9 17  4  0  0  0  0
 16 17  4  0  0  0  0
 11 18  4  0  0  0  0
 18 19  4  0  0  0  0
 19 20  4  0  0  0  0
 12 21  1  0  0  0  0
 20 21  2  0  0  0  0
  2 22  1  0  0  0  0
 18 23  1  0  0  0  0
 24 25  4  0  0  0  0
 25 26  4  0  0  0  0
 26 27  1  0  0  0  0
 27 28  4  0  0  0  0
 24 29  4  0  0  0  0
 28 29  2  0  0  0  0
 26 30  4  0  0  0  0
 30 31  4  0  0  0  0
 31 32  1  0  0  0  0
 27 33  4  0  0  0  0
 32 33  4  0  0  0  0
 30 34  4  0  0  0  0
 34 35  1  0  0  0  0
 35 36  4  0  0  0  0
 31 37  1  0  0  0  0
 36 37  4  0  0  0  0
 37 38  4  0  0  0  0
 38 39  4  0  0  0  0
 32 40  4  0  0  0  0
 39 40  4  0  0  0  0
 34 41  4  0  0  0  0
 41 42  4  0  0  0  0
 42 43  4  0  0  0  0
 35 44  4  0  0  0  0
 43 44  2  0  0  0  0
 25 45  1  0  0  0  0
 41 46  1  0  0  0  0
 22 47  1  0  0  0  0
 23 47  1  0  0  0  0
 45 47  1  0  0  0  0
 46 47  1  0  0  0  0
  6 48  1  0  0  0  0
 48 49  1  0  0  0  0
 48 50  1  0  0  0  0
 48 51  1  0  0  0  0
 48 52  1  0  0  0  0
 48 53  1  0  0  0  0
 20 54  1  0  0  0  0
 54 55  1  0  0  0  0
 54 56  1  0  0  0  0
 54 57  1  0  0  0  0
 54 58  1  0  0  0  0
 54 59  1  0  0  0  0
 16 60  1  0  0  0  0
 60 61  1  0  0  0  0
 60 62  1  0  0  0  0
 60 63  1  0  0  0  0
 60 64  1  0  0  0  0
 60 65  1  0  0  0  0
 29 66  1  0  0  0  0
 66 67  1  0  0  0  0
 66 68  1  0  0  0  0
 66 69  1  0  0  0  0
 66 70  1  0  0  0  0
 66 71  1  0  0  0  0
 43 72  1  0  0  0  0
 72 73  1  0  0  0  0
 72 74  1  0  0  0  0
 72 75  1  0  0  0  0
 72 76  1  0  0  0  0
 72 77  1  0  0  0  0
 39 78  1  0  0  0  0
 78 79  1  0  0  0  0
 78 80  1  0  0  0  0
 78 81  1  0  0  0  0
 78 82  1  0  0  0  0
 78 83  1  0  0  0  0
 28 84  1  0  0  0  0
 40 85  1  0  0  0  0
 38 86  1  0  0  0  0
 24 87  1  0  0  0  0
 42 88  1  0  0  0  0
 17 89  1  0  0  0  0
 19 90  1  0  0  0  0
 15 91  1  0  0  0  0
  5 92  1  0  0  0  0
 21 93  1  0  0  0  0
 44 94  1  0  0  0  0
  1 95  1  0  0  0  0
 96 97  4  0  0  0  0
 97 98  4  0  0  0  0
 98 99  1  0  0  0  0
 99100  4  0  0  0  0
 96101  4  0  0  0  0
100101  2  0  0  0  0
 98102  1  0  0  0  0
102103  4  0  0  0  0
103104  1  0  0  0  0
 99105  4  0  0  0  0
104105  4  0  0  0  0
102106  4  0  0  0  0
106107  1  0  0  0  0
107108  4  0  0  0  0
103109  1  0  0  0  0
108109  4  0  0  0  0
109110  4  0  0  0  0
110111  4  0  0  0  0
104112  4  0  0  0  0
111112  4  0  0  0  0
106113  4  0  0  0  0
113114  4  0  0  0  0
114115  4  0  0  0  0
107116  1  0  0  0  0
115116  2  0  0  0  0
 97117  1  0  0  0  0
113118  1  0  0  0  0
119120  4  0  0  0  0
120121  4  0  0  0  0
121122  1  0  0  0  0
122123  4  0  0  0  0
119124  4  0  0  0  0
123124  2  0  0  0  0
121125  4  0  0  0  0
125126  4  0  0  0  0
126127  1  0  0  0  0
122128  4  0  0  0  0
127128  4  0  0  0  0
125129  4  0  0  0  0
129130  1  0  0  0  0
130131  4  0  0  0  0
126132  1  0  0  0  0
131132  4  0  0  0  0
132133  4  0  0  0  0
133134  4  0  0  0  0
127135  4  0  0  0  0
134135  4  0  0  0  0
129136  4  0  0  0  0
136137  4  0  0  0  0
137138  4  0  0  0  0
130139  4  0  0  0  0
138139  2  0  0  0  0
120140  1  0  0  0  0
136141  1  0  0  0  0
117142  1  0  0  0  0
118142  1  0  0  0  0
140142  1  0  0  0  0
141142  1  0  0  0  0
101143  1  0  0  0  0
143144  1  0  0  0  0
143145  1  0  0  0  0
143146  1  0  0  0  0
143147  1  0  0  0  0
143148  1  0  0  0  0
115149  1  0  0  0  0
149150  1  0  0  0  0
149151  1  0  0  0  0
149152  1  0  0  0  0
149153  1  0  0  0  0
149154  1  0  0  0  0
111155  1  0  0  0  0
155156  1  0  0  0  0
155157  1  0  0  0  0
155158  1  0  0  0  0
155159  1  0  0  0  0
155160  1  0  0  0  0
124161  1  0  0  0  0
161162  1  0  0  0  0
161163  1  0  0  0  0
161164  1  0  0  0  0
161165  1  0  0  0  0
161166  1  0  0  0  0
138167  1  0  0  0  0
167168  1  0  0  0  0
167169  1  0  0  0  0
167170  1  0  0  0  0
167171  1  0  0  0  0
167172  1  0  0  0  0
134173  1  0  0  0  0
173174  1  0  0  0  0
173175  1  0  0  0  0
173176  1  0  0  0  0
173177  1  0  0  0  0
173178  1  0  0  0  0
123179  1  0  0  0  0
135180  1  0  0  0  0
133181  1  0  0  0  0
119182  1  0  0  0  0
137183  1  0  0  0  0
112184  1  0  0  0  0
114185  1  0  0  0  0
110186  1  0  0  0  0
100187  1  0  0  0  0
116188  1  0  0  0  0
139189  1  0  0  0  0
 96190  1  0  0  0  0
M  CHG  1  13   1
M  CHG  1  47  -1
M  CHG  1 108   1
M  CHG  1 142  -1
M  END
