 energy: -200.146028716073 gnorm: 0.000293094484 xtb: 6.7.1 (edcfbbe)
          03102517203D

101112  0     0  0            999 V2000
   -0.1581    4.5266    0.2237 C   0  0  0  0  0  0  0  0  0  0  0  0
    0.2518    3.3115    0.7714 C   0  0  0  0  0  0  0  0  0  0  0  0
    1.6251    2.9750    0.7806 C   0  0  0  0  0  0  0  0  0  0  0  0
    2.5482    4.0468    0.4598 C   0  0  0  0  0  0  0  0  0  0  0  0
    2.0905    5.2436   -0.1488 C   0  0  0  0  0  0  0  0  0  0  0  0
    0.7437    5.4687   -0.2808 C   0  0  0  0  0  0  0  0  0  0  0  0
    2.1978    1.7189    1.1931 C   0  0  0  0  0  0  0  0  0  0  0  0
    3.5335    1.8048    1.6532 C   0  0  0  0  0  0  0  0  0  0  0  0
    4.2987    2.9955    1.4827 C   0  0  0  0  0  0  0  0  0  0  0  0
    3.8230    4.0334    0.8003 N   0  0  0  0  0  0  0  0  0  0  0  0
    1.6423    0.3920    1.1083 C   0  0  0  0  0  0  0  0  0  0  0  0
    2.4208   -0.6735    1.7104 C   0  0  0  0  0  0  0  0  0  0  0  0
    3.5716   -0.4923    2.3372 N   0  0  0  0  0  0  0  0  0  0  0  0
    4.1647    0.6924    2.2769 C   0  0  0  0  0  0  0  0  0  0  0  0
    5.4644    0.8170    2.8164 C   0  0  0  0  0  0  0  0  0  0  0  0
    6.1804    1.9925    2.6583 C   0  0  0  0  0  0  0  0  0  0  0  0
    5.6154    3.0640    1.9751 C   0  0  0  0  0  0  0  0  0  0  0  0
    0.5102   -0.0229    0.3478 C   0  0  0  0  0  0  0  0  0  0  0  0
    0.3055   -1.3879    0.1028 C   0  0  0  0  0  0  0  0  0  0  0  0
    1.0662   -2.3956    0.7022 C   0  0  0  0  0  0  0  0  0  0  0  0
    2.0642   -2.0393    1.5703 C   0  0  0  0  0  0  0  0  0  0  0  0
   -0.6573    2.5253    1.3444 O   0  0  0  0  0  0  0  0  0  0  0  0
   -0.3597    0.7856   -0.2445 O   0  0  0  0  0  0  0  0  0  0  0  0
    0.2729    6.7461   -0.9036 C   0  0  0  0  0  0  0  0  0  0  0  0
    0.8108   -3.8416    0.4319 C   0  0  0  0  0  0  0  0  0  0  0  0
    7.5839    2.1493    3.1744 C   0  0  0  0  0  0  0  0  0  0  0  0
   -1.7783   -1.4181    1.9884 C   0  0  0  0  0  0  0  0  0  0  0  0
   -2.4543   -0.4827    1.2035 C   0  0  0  0  0  0  0  0  0  0  0  0
   -3.3907   -0.9146    0.2248 C   0  0  0  0  0  0  0  0  0  0  0  0
   -3.4899   -2.3481    0.0403 C   0  0  0  0  0  0  0  0  0  0  0  0
   -2.7356   -3.2614    0.8226 C   0  0  0  0  0  0  0  0  0  0  0  0
   -1.9176   -2.8001    1.8178 C   0  0  0  0  0  0  0  0  0  0  0  0
   -4.3345   -0.0899   -0.4834 C   0  0  0  0  0  0  0  0  0  0  0  0
   -5.3307   -0.7905   -1.2059 C   0  0  0  0  0  0  0  0  0  0  0  0
   -5.2272   -2.1923   -1.4346 C   0  0  0  0  0  0  0  0  0  0  0  0
   -4.3079   -2.9280   -0.8247 N   0  0  0  0  0  0  0  0  0  0  0  0
   -4.4987    1.3467   -0.4529 C   0  0  0  0  0  0  0  0  0  0  0  0
   -5.8482    1.8283   -0.7043 C   0  0  0  0  0  0  0  0  0  0  0  0
   -6.7744    1.1149   -1.3136 N   0  0  0  0  0  0  0  0  0  0  0  0
   -6.4968   -0.1302   -1.6888 C   0  0  0  0  0  0  0  0  0  0  0  0
   -7.4263   -0.8199   -2.4872 C   0  0  0  0  0  0  0  0  0  0  0  0
   -7.2257   -2.1564   -2.8176 C   0  0  0  0  0  0  0  0  0  0  0  0
   -6.1466   -2.8437   -2.2879 C   0  0  0  0  0  0  0  0  0  0  0  0
   -3.5120    2.3606   -0.3213 C   0  0  0  0  0  0  0  0  0  0  0  0
   -3.9177    3.6828   -0.1048 C   0  0  0  0  0  0  0  0  0  0  0  0
   -5.2555    4.0851   -0.0976 C   0  0  0  0  0  0  0  0  0  0  0  0
   -6.2208    3.1687   -0.4257 C   0  0  0  0  0  0  0  0  0  0  0  0
   -2.1772    0.7908    1.4480 O   0  0  0  0  0  0  0  0  0  0  0  0
   -2.2126    2.1543   -0.5016 O   0  0  0  0  0  0  0  0  0  0  0  0
   -1.0785   -3.6873    2.6834 C   0  0  0  0  0  0  0  0  0  0  0  0
   -5.6557    5.4995    0.1875 C   0  0  0  0  0  0  0  0  0  0  0  0
   -8.2321   -2.8184   -3.7163 C   0  0  0  0  0  0  0  0  0  0  0  0
   -1.3603    1.5661    0.5172 B   0  0  0  0  0  0  0  0  0  0  0  0
    8.2229    3.1565    3.0296 O   0  0  0  0  0  0  0  0  0  0  0  0
    8.0128    1.0539    3.7890 O   0  0  0  0  0  0  0  0  0  0  0  0
    9.3405    1.1033    4.3059 C   0  0  0  0  0  0  0  0  0  0  0  0
   -0.1351   -4.0246   -0.4899 O   0  0  0  0  0  0  0  0  0  0  0  0
   -0.4341   -5.3797   -0.8151 C   0  0  0  0  0  0  0  0  0  0  0  0
    1.3983   -4.7373    0.9806 O   0  0  0  0  0  0  0  0  0  0  0  0
   -0.2522   -3.2544    3.4459 O   0  0  0  0  0  0  0  0  0  0  0  0
   -1.3323   -4.9746    2.4889 O   0  0  0  0  0  0  0  0  0  0  0  0
   -0.5260   -5.8940    3.2266 C   0  0  0  0  0  0  0  0  0  0  0  0
   -9.2000   -2.2489   -4.1432 O   0  0  0  0  0  0  0  0  0  0  0  0
   -7.9146   -4.0822   -3.9731 O   0  0  0  0  0  0  0  0  0  0  0  0
   -8.8118   -4.7930   -4.8231 C   0  0  0  0  0  0  0  0  0  0  0  0
   -6.7963    5.8775    0.1799 O   0  0  0  0  0  0  0  0  0  0  0  0
   -4.6054    6.2768    0.4501 O   0  0  0  0  0  0  0  0  0  0  0  0
   -4.8992    7.6363    0.7570 C   0  0  0  0  0  0  0  0  0  0  0  0
    1.0151    7.5955   -1.3177 O   0  0  0  0  0  0  0  0  0  0  0  0
   -1.0580    6.8205   -0.9473 O   0  0  0  0  0  0  0  0  0  0  0  0
   -1.5992    7.9994   -1.5344 C   0  0  0  0  0  0  0  0  0  0  0  0
   -8.8741   -4.3057   -5.7974 H   0  0  0  0  0  0  0  0  0  0  0  0
   -9.8084   -4.8217   -4.3797 H   0  0  0  0  0  0  0  0  0  0  0  0
   -8.4054   -5.7958   -4.9205 H   0  0  0  0  0  0  0  0  0  0  0  0
   -3.9491    8.1048    0.9985 H   0  0  0  0  0  0  0  0  0  0  0  0
   -5.5829    7.6925    1.6057 H   0  0  0  0  0  0  0  0  0  0  0  0
   -5.3663    8.1255   -0.0997 H   0  0  0  0  0  0  0  0  0  0  0  0
   -2.6666    7.8241   -1.6369 H   0  0  0  0  0  0  0  0  0  0  0  0
   -1.1412    8.1822   -2.5078 H   0  0  0  0  0  0  0  0  0  0  0  0
   -1.4097    8.8611   -0.8916 H   0  0  0  0  0  0  0  0  0  0  0  0
   -1.0149   -6.8611    3.1452 H   0  0  0  0  0  0  0  0  0  0  0  0
   -0.4539   -5.5801    4.2685 H   0  0  0  0  0  0  0  0  0  0  0  0
    0.4753   -5.9256    2.7910 H   0  0  0  0  0  0  0  0  0  0  0  0
   -0.8336   -5.8953    0.0599 H   0  0  0  0  0  0  0  0  0  0  0  0
    0.4679   -5.8960   -1.1479 H   0  0  0  0  0  0  0  0  0  0  0  0
   -1.1717   -5.3422   -1.6119 H   0  0  0  0  0  0  0  0  0  0  0  0
    9.5235    0.1342    4.7613 H   0  0  0  0  0  0  0  0  0  0  0  0
    9.4280    1.9003    5.0460 H   0  0  0  0  0  0  0  0  0  0  0  0
   10.0517    1.2917    3.5000 H   0  0  0  0  0  0  0  0  0  0  0  0
   -8.3060   -0.3014   -2.8408 H   0  0  0  0  0  0  0  0  0  0  0  0
   -5.9956   -3.8917   -2.4957 H   0  0  0  0  0  0  0  0  0  0  0  0
   -7.2545    3.4530   -0.5441 H   0  0  0  0  0  0  0  0  0  0  0  0
   -2.8777   -4.3116    0.6304 H   0  0  0  0  0  0  0  0  0  0  0  0
   -3.1517    4.4243    0.0528 H   0  0  0  0  0  0  0  0  0  0  0  0
   -1.1193   -1.0492    2.7611 H   0  0  0  0  0  0  0  0  0  0  0  0
   -1.2133    4.7377    0.2006 H   0  0  0  0  0  0  0  0  0  0  0  0
   -0.4791   -1.6485   -0.5910 H   0  0  0  0  0  0  0  0  0  0  0  0
    2.6597   -2.7793    2.0807 H   0  0  0  0  0  0  0  0  0  0  0  0
    2.8161    5.9870   -0.4398 H   0  0  0  0  0  0  0  0  0  0  0  0
    6.1901    3.9651    1.8141 H   0  0  0  0  0  0  0  0  0  0  0  0
    5.8871   -0.0324    3.3305 H   0  0  0  0  0  0  0  0  0  0  0  0
  1  2  2  0  0  0  0
  1 96  1  0  0  0  0
  2  3  1  0  0  0  0
  3  4  2  0  0  0  0
  3  7  1  0  0  0  0
  4  5  1  0  0  0  0
  5  6  2  0  0  0  0
  5 99  1  0  0  0  0
  6  1  1  0  0  0  0
  6 24  1  0  0  0  0
  7  8  1  0  0  0  0
  7 11  2  0  0  0  0
  8  9  1  0  0  0  0
  9 10  2  0  0  0  0
 10  4  1  0  0  0  0
 11 12  1  0  0  0  0
 11 18  1  0  0  0  0
 12 13  2  0  0  0  0
 13 14  1  0  0  0  0
 14  8  1  0  0  0  0
 14 15  2  0  0  0  0
 15 16  1  0  0  0  0
 15101  1  0  0  0  0
 16 17  2  0  0  0  0
 16 26  1  0  0  0  0
 17  9  1  0  0  0  0
 17100  1  0  0  0  0
 18 19  2  0  0  0  0
 19 20  1  0  0  0  0
 19 97  1  0  0  0  0
 20 21  2  0  0  0  0
 20 25  1  0  0  0  0
 21 12  1  0  0  0  0
 21 98  1  0  0  0  0
 22  2  1  0  0  0  0
 23 18  1  0  0  0  0
 24 69  2  0  0  0  0
 24 70  1  0  0  0  0
 25 57  1  0  0  0  0
 25 59  2  0  0  0  0
 26 54  2  0  0  0  0
 26 55  1  0  0  0  0
 27 28  2  0  0  0  0
 27 95  1  0  0  0  0
 28 29  1  0  0  0  0
 28 48  1  0  0  0  0
 29 30  2  0  0  0  0
 29 33  1  0  0  0  0
 30 31  1  0  0  0  0
 31 32  2  0  0  0  0
 31 93  1  0  0  0  0
 32 27  1  0  0  0  0
 32 50  1  0  0  0  0
 33 37  2  0  0  0  0
 34 33  1  0  0  0  0
 34 35  1  0  0  0  0
 35 36  2  0  0  0  0
 36 30  1  0  0  0  0
 37 38  1  0  0  0  0
 37 44  1  0  0  0  0
 38 39  2  0  0  0  0
 39 40  1  0  0  0  0
 40 34  1  0  0  0  0
 40 41  2  0  0  0  0
 41 42  1  0  0  0  0
 41 90  1  0  0  0  0
 42 43  2  0  0  0  0
 42 52  1  0  0  0  0
 43 35  1  0  0  0  0
 43 91  1  0  0  0  0
 44 45  2  0  0  0  0
 44 49  1  0  0  0  0
 45 46  1  0  0  0  0
 45 94  1  0  0  0  0
 46 47  2  0  0  0  0
 46 51  1  0  0  0  0
 47 38  1  0  0  0  0
 47 92  1  0  0  0  0
 50 60  2  0  0  0  0
 50 61  1  0  0  0  0
 51 66  2  0  0  0  0
 51 67  1  0  0  0  0
 52 63  2  0  0  0  0
 52 64  1  0  0  0  0
 53 49  1  0  0  0  0
 53 22  1  0  0  0  0
 53 48  1  0  0  0  0
 53 23  1  0  0  0  0
 55 56  1  0  0  0  0
 56 87  1  0  0  0  0
 56 88  1  0  0  0  0
 56 89  1  0  0  0  0
 57 58  1  0  0  0  0
 58 84  1  0  0  0  0
 58 85  1  0  0  0  0
 58 86  1  0  0  0  0
 61 62  1  0  0  0  0
 62 81  1  0  0  0  0
 62 82  1  0  0  0  0
 62 83  1  0  0  0  0
 64 65  1  0  0  0  0
 65 72  1  0  0  0  0
 65 73  1  0  0  0  0
 65 74  1  0  0  0  0
 67 68  1  0  0  0  0
 68 75  1  0  0  0  0
 68 76  1  0  0  0  0
 68 77  1  0  0  0  0
 70 71  1  0  0  0  0
 71 78  1  0  0  0  0
 71 79  1  0  0  0  0
 71 80  1  0  0  0  0
M  CHG  1   1   1
M  END
