 xtb: 6.7.1 (43a0e4e5b5d943adc66b4aa6563d39c792f6153b)
          11252410503D

 76 80  0     0  0            999 V2000
   -2.8275    1.5560   -2.4463 C   0  0  0  0  0  0  0  0  0  0  0  0
   -2.5044    0.5672   -1.5293 C   0  0  0  0  0  0  0  0  0  0  0  0
   -1.3789    0.7457   -0.6920 C   0  0  0  0  0  0  0  0  0  0  0  0
   -0.4615    1.7988   -1.0429 C   0  0  0  0  0  0  0  0  0  0  0  0
   -0.8483    2.7963   -1.9739 C   0  0  0  0  0  0  0  0  0  0  0  0
   -2.0404    2.7084   -2.6459 C   0  0  0  0  0  0  0  0  0  0  0  0
   -1.0104   -0.1033    0.3921 C   0  0  0  0  0  0  0  0  0  0  0  0
    0.3533   -0.1045    0.7345 C   0  0  0  0  0  0  0  0  0  0  0  0
    1.2276    0.8806    0.2070 C   0  0  0  0  0  0  0  0  0  0  0  0
    0.7814    1.8539   -0.5874 N   0  0  0  0  0  0  0  0  0  0  0  0
   -1.8524   -0.9494    1.1723 C   0  0  0  0  0  0  0  0  0  0  0  0
   -1.2115   -1.9906    1.9327 C   0  0  0  0  0  0  0  0  0  0  0  0
    0.1015   -2.0520    2.1130 N   0  0  0  0  0  0  0  0  0  0  0  0
    0.8741   -1.0920    1.6101 C   0  0  0  0  0  0  0  0  0  0  0  0
    2.2562   -1.0958    1.9056 C   0  0  0  0  0  0  0  0  0  0  0  0
    3.1158   -0.1199    1.4152 C   0  0  0  0  0  0  0  0  0  0  0  0
    2.5849    0.8678    0.5866 C   0  0  0  0  0  0  0  0  0  0  0  0
   -3.2412   -0.7755    1.3635 C   0  0  0  0  0  0  0  0  0  0  0  0
   -3.9646   -1.7484    2.0431 C   0  0  0  0  0  0  0  0  0  0  0  0
   -3.3659   -2.8766    2.6287 C   0  0  0  0  0  0  0  0  0  0  0  0
   -1.9938   -2.9649    2.5967 C   0  0  0  0  0  0  0  0  0  0  0  0
   -3.7760    0.3772    0.9138 O   0  0  0  0  0  0  0  0  0  0  0  0
   -3.1663   -0.6014   -1.4141 O   0  0  0  0  0  0  0  0  0  0  0  0
   -2.5181    3.7578   -3.6320 C   0  0  0  0  0  0  0  0  0  0  0  0
   -4.1795   -3.9492    3.3311 C   0  0  0  0  0  0  0  0  0  0  0  0
    4.5961   -0.0878    1.7533 C   0  0  0  0  0  0  0  0  0  0  0  0
   -5.6880   -3.6997    3.2575 C   0  0  0  0  0  0  0  0  0  0  0  0
   -3.8792   -5.2996    2.6645 C   0  0  0  0  0  0  0  0  0  0  0  0
   -3.7670   -3.9945    4.8095 C   0  0  0  0  0  0  0  0  0  0  0  0
    5.4042   -0.1436    0.4489 C   0  0  0  0  0  0  0  0  0  0  0  0
    4.8952    1.2199    2.5007 C   0  0  0  0  0  0  0  0  0  0  0  0
    5.0180   -1.2633    2.6371 C   0  0  0  0  0  0  0  0  0  0  0  0
   -3.9071    4.2492   -3.1992 C   0  0  0  0  0  0  0  0  0  0  0  0
   -2.5946    3.1322   -5.0324 C   0  0  0  0  0  0  0  0  0  0  0  0
   -1.5773    4.9632   -3.6890 C   0  0  0  0  0  0  0  0  0  0  0  0
   -0.1382    3.5856   -2.1465 H   0  0  0  0  0  0  0  0  0  0  0  0
   -3.7194    1.4398   -3.0397 H   0  0  0  0  0  0  0  0  0  0  0  0
    3.1995    1.6663    0.2010 H   0  0  0  0  0  0  0  0  0  0  0  0
    2.6080   -1.8987    2.5325 H   0  0  0  0  0  0  0  0  0  0  0  0
   -1.4540   -3.7440    3.1079 H   0  0  0  0  0  0  0  0  0  0  0  0
   -5.0304   -1.6277    2.1292 H   0  0  0  0  0  0  0  0  0  0  0  0
   -5.1359    0.6610    1.1644 C   0  0  0  0  0  0  0  0  0  0  0  0
   -4.2310   -0.8864   -2.2962 C   0  0  0  0  0  0  0  0  0  0  0  0
   -1.4744    5.4257   -2.7104 H   0  0  0  0  0  0  0  0  0  0  0  0
   -1.9848    5.7058   -4.3701 H   0  0  0  0  0  0  0  0  0  0  0  0
   -0.5949    4.6790   -4.0569 H   0  0  0  0  0  0  0  0  0  0  0  0
   -3.3169    2.3214   -5.0751 H   0  0  0  0  0  0  0  0  0  0  0  0
   -1.6224    2.7431   -5.3266 H   0  0  0  0  0  0  0  0  0  0  0  0
   -2.8941    3.8871   -5.7544 H   0  0  0  0  0  0  0  0  0  0  0  0
   -4.6434    3.4502   -3.2087 H   0  0  0  0  0  0  0  0  0  0  0  0
   -4.2483    5.0252   -3.8792 H   0  0  0  0  0  0  0  0  0  0  0  0
   -3.8644    4.6675   -2.1960 H   0  0  0  0  0  0  0  0  0  0  0  0
    5.2021    0.7120   -0.1892 H   0  0  0  0  0  0  0  0  0  0  0  0
    5.1699   -1.0498   -0.1053 H   0  0  0  0  0  0  0  0  0  0  0  0
    6.4664   -0.1487    0.6777 H   0  0  0  0  0  0  0  0  0  0  0  0
    4.8354   -2.2145    2.1426 H   0  0  0  0  0  0  0  0  0  0  0  0
    4.4993   -1.2467    3.5926 H   0  0  0  0  0  0  0  0  0  0  0  0
    6.0839   -1.1940    2.8381 H   0  0  0  0  0  0  0  0  0  0  0  0
    4.6686    2.0919    1.8938 H   0  0  0  0  0  0  0  0  0  0  0  0
    5.9487    1.2567    2.7644 H   0  0  0  0  0  0  0  0  0  0  0  0
    4.3112    1.2766    3.4167 H   0  0  0  0  0  0  0  0  0  0  0  0
   -3.9352   -3.0291    5.2818 H   0  0  0  0  0  0  0  0  0  0  0  0
   -2.7189   -4.2542    4.9234 H   0  0  0  0  0  0  0  0  0  0  0  0
   -4.3597   -4.7398    5.3330 H   0  0  0  0  0  0  0  0  0  0  0  0
   -4.1552   -5.2741    1.6126 H   0  0  0  0  0  0  0  0  0  0  0  0
   -4.4523   -6.0850    3.1500 H   0  0  0  0  0  0  0  0  0  0  0  0
   -2.8260   -5.5537    2.7365 H   0  0  0  0  0  0  0  0  0  0  0  0
   -6.0338   -3.6622    2.2267 H   0  0  0  0  0  0  0  0  0  0  0  0
   -5.9647   -2.7803    3.7689 H   0  0  0  0  0  0  0  0  0  0  0  0
   -6.2082   -4.5172    3.7502 H   0  0  0  0  0  0  0  0  0  0  0  0
   -4.5503   -1.8973   -2.0486 H   0  0  0  0  0  0  0  0  0  0  0  0
   -3.9045   -0.8584   -3.3395 H   0  0  0  0  0  0  0  0  0  0  0  0
   -5.0679   -0.1967   -2.1532 H   0  0  0  0  0  0  0  0  0  0  0  0
   -5.3020    1.6594    0.7626 H   0  0  0  0  0  0  0  0  0  0  0  0
   -5.3535    0.6647    2.2359 H   0  0  0  0  0  0  0  0  0  0  0  0
   -5.7957   -0.0485    0.6566 H   0  0  0  0  0  0  0  0  0  0  0  0
  1  2  4  0  0  0  0
  2  3  4  0  0  0  0
  3  4  1  0  0  0  0
  4  5  4  0  0  0  0
  1  6  4  0  0  0  0
  5  6  2  0  0  0  0
  3  7  4  0  0  0  0
  7  8  4  0  0  0  0
  8  9  1  0  0  0  0
  4 10  4  0  0  0  0
  9 10  4  0  0  0  0
  7 11  4  0  0  0  0
 11 12  1  0  0  0  0
 12 13  4  0  0  0  0
  8 14  1  0  0  0  0
 13 14  4  0  0  0  0
 14 15  4  0  0  0  0
 15 16  4  0  0  0  0
  9 17  4  0  0  0  0
 16 17  4  0  0  0  0
 11 18  4  0  0  0  0
 18 19  4  0  0  0  0
 19 20  4  0  0  0  0
 12 21  4  0  0  0  0
 20 21  4  0  0  0  0
 18 22  1  0  0  0  0
  2 23  1  0  0  0  0
  6 24  1  0  0  0  0
 20 25  1  0  0  0  0
 16 26  1  0  0  0  0
 25 27  1  0  0  0  0
 25 28  1  0  0  0  0
 25 29  1  0  0  0  0
 26 30  1  0  0  0  0
 26 31  1  0  0  0  0
 26 32  1  0  0  0  0
 24 33  1  0  0  0  0
 24 34  1  0  0  0  0
 24 35  1  0  0  0  0
  5 36  1  0  0  0  0
  1 37  1  0  0  0  0
 17 38  1  0  0  0  0
 15 39  1  0  0  0  0
 21 40  1  0  0  0  0
 19 41  1  0  0  0  0
 22 42  1  0  0  0  0
 23 43  1  0  0  0  0
 35 44  1  0  0  0  0
 35 45  1  0  0  0  0
 35 46  1  0  0  0  0
 34 47  1  0  0  0  0
 34 48  1  0  0  0  0
 34 49  1  0  0  0  0
 33 50  1  0  0  0  0
 33 51  1  0  0  0  0
 33 52  1  0  0  0  0
 30 53  1  0  0  0  0
 30 54  1  0  0  0  0
 30 55  1  0  0  0  0
 32 56  1  0  0  0  0
 32 57  1  0  0  0  0
 32 58  1  0  0  0  0
 31 59  1  0  0  0  0
 31 60  1  0  0  0  0
 31 61  1  0  0  0  0
 29 62  1  0  0  0  0
 29 63  1  0  0  0  0
 29 64  1  0  0  0  0
 28 65  1  0  0  0  0
 28 66  1  0  0  0  0
 28 67  1  0  0  0  0
 27 68  1  0  0  0  0
 27 69  1  0  0  0  0
 27 70  1  0  0  0  0
 43 71  1  0  0  0  0
 43 72  1  0  0  0  0
 43 73  1  0  0  0  0
 42 74  1  0  0  0  0
 42 75  1  0  0  0  0
 42 76  1  0  0  0  0
M  CHG  1   1   1
M  END
