 energy: -27.601459591668 gnorm: 0.000545859125 xtb: 6.7.1 (edcfbbe)
          12022411543D

152160  0     0  0            999 V2000
   -3.0950    1.9079   -2.5435 C   0  0  0  0  0  0  0  0  0  0  0  0
   -2.8929    0.7466   -1.8014 C   0  0  0  0  0  0  0  0  0  0  0  0
   -1.8475    0.7405   -0.8194 C   0  0  0  0  0  0  0  0  0  0  0  0
   -0.8573    1.7582   -0.8838 C   0  0  0  0  0  0  0  0  0  0  0  0
   -1.0939    2.8751   -1.7064 C   0  0  0  0  0  0  0  0  0  0  0  0
   -2.2244    2.9918   -2.4859 C   0  0  0  0  0  0  0  0  0  0  0  0
   -1.7060   -0.2573    0.1955 C   0  0  0  0  0  0  0  0  0  0  0  0
   -0.4403   -0.3843    0.7782 C   0  0  0  0  0  0  0  0  0  0  0  0
    0.5314    0.6317    0.5844 C   0  0  0  0  0  0  0  0  0  0  0  0
    0.3021    1.7171   -0.1835 N   0  0  0  0  0  0  0  0  0  0  0  0
   -2.7228   -1.1289    0.7049 C   0  0  0  0  0  0  0  0  0  0  0  0
   -2.3021   -2.3188    1.3563 C   0  0  0  0  0  0  0  0  0  0  0  0
   -1.0194   -2.5404    1.7359 N   0  0  0  0  0  0  0  0  0  0  0  0
   -0.1448   -1.5228    1.5743 C   0  0  0  0  0  0  0  0  0  0  0  0
    1.1113   -1.5863    2.1921 C   0  0  0  0  0  0  0  0  0  0  0  0
    2.0436   -0.5665    2.0841 C   0  0  0  0  0  0  0  0  0  0  0  0
    1.7512    0.5131    1.2645 C   0  0  0  0  0  0  0  0  0  0  0  0
   -4.1162   -0.8001    0.6999 C   0  0  0  0  0  0  0  0  0  0  0  0
   -5.0278   -1.7803    1.0830 C   0  0  0  0  0  0  0  0  0  0  0  0
   -4.6266   -3.0268    1.5594 C   0  0  0  0  0  0  0  0  0  0  0  0
   -3.2790   -3.2663    1.7097 C   0  0  0  0  0  0  0  0  0  0  0  0
   -4.4868    0.5098    0.4092 O   0  0  0  0  0  0  0  0  0  0  0  0
   -3.6913   -0.3730   -2.1088 O   0  0  0  0  0  0  0  0  0  0  0  0
   -2.5222    4.2463   -3.3190 C   0  0  0  0  0  0  0  0  0  0  0  0
   -5.6340   -4.0902    2.0194 C   0  0  0  0  0  0  0  0  0  0  0  0
    3.3913   -0.6581    2.8140 C   0  0  0  0  0  0  0  0  0  0  0  0
   -7.0840   -3.6826    1.6953 C   0  0  0  0  0  0  0  0  0  0  0  0
   -5.3366   -5.4214    1.3044 C   0  0  0  0  0  0  0  0  0  0  0  0
   -5.5040   -4.2758    3.5423 C   0  0  0  0  0  0  0  0  0  0  0  0
    4.4050   -1.3702    1.9051 C   0  0  0  0  0  0  0  0  0  0  0  0
    3.9162    0.7497    3.1592 C   0  0  0  0  0  0  0  0  0  0  0  0
    3.2433   -1.4475    4.1313 C   0  0  0  0  0  0  0  0  0  0  0  0
   -3.9111    4.7892   -2.9344 C   0  0  0  0  0  0  0  0  0  0  0  0
   -2.5008    3.8817   -4.8139 C   0  0  0  0  0  0  0  0  0  0  0  0
   -1.4837    5.3569   -3.0695 C   0  0  0  0  0  0  0  0  0  0  0  0
   -0.3566    3.6552   -1.6974 H   0  0  0  0  0  0  0  0  0  0  0  0
   -3.9293    1.9264   -3.2193 H   0  0  0  0  0  0  0  0  0  0  0  0
    2.4674    1.3005    1.1278 H   0  0  0  0  0  0  0  0  0  0  0  0
    1.3278   -2.4579    2.7798 H   0  0  0  0  0  0  0  0  0  0  0  0
   -2.9437   -4.1865    2.1509 H   0  0  0  0  0  0  0  0  0  0  0  0
   -6.0734   -1.5481    1.0509 H   0  0  0  0  0  0  0  0  0  0  0  0
   -5.8589    0.6997    0.1597 C   0  0  0  0  0  0  0  0  0  0  0  0
   -2.9538   -1.5428   -2.4040 C   0  0  0  0  0  0  0  0  0  0  0  0
   -1.4561    5.6377   -2.0171 H   0  0  0  0  0  0  0  0  0  0  0  0
   -1.7281    6.2502   -3.6437 H   0  0  0  0  0  0  0  0  0  0  0  0
   -0.4862    5.0378   -3.3695 H   0  0  0  0  0  0  0  0  0  0  0  0
   -3.2576    3.1349   -5.0497 H   0  0  0  0  0  0  0  0  0  0  0  0
   -1.5302    3.4750   -5.0964 H   0  0  0  0  0  0  0  0  0  0  0  0
   -2.6928    4.7582   -5.4320 H   0  0  0  0  0  0  0  0  0  0  0  0
   -4.6930    4.0593   -3.1388 H   0  0  0  0  0  0  0  0  0  0  0  0
   -4.1453    5.6939   -3.4946 H   0  0  0  0  0  0  0  0  0  0  0  0
   -3.9485    5.0302   -1.8724 H   0  0  0  0  0  0  0  0  0  0  0  0
    4.5394   -0.8229    0.9725 H   0  0  0  0  0  0  0  0  0  0  0  0
    4.0631   -2.3744    1.6567 H   0  0  0  0  0  0  0  0  0  0  0  0
    5.3759   -1.4531    2.3926 H   0  0  0  0  0  0  0  0  0  0  0  0
    3.0337   -2.5000    3.9476 H   0  0  0  0  0  0  0  0  0  0  0  0
    2.4339   -1.0406    4.7351 H   0  0  0  0  0  0  0  0  0  0  0  0
    4.1583   -1.3992    4.7200 H   0  0  0  0  0  0  0  0  0  0  0  0
    4.1890    1.3070    2.2645 H   0  0  0  0  0  0  0  0  0  0  0  0
    4.8061    0.6890    3.7840 H   0  0  0  0  0  0  0  0  0  0  0  0
    3.1608    1.3197    3.6984 H   0  0  0  0  0  0  0  0  0  0  0  0
   -5.6890   -3.3357    4.0613 H   0  0  0  0  0  0  0  0  0  0  0  0
   -4.5052   -4.6142    3.8149 H   0  0  0  0  0  0  0  0  0  0  0  0
   -6.2185   -5.0122    3.9089 H   0  0  0  0  0  0  0  0  0  0  0  0
   -5.3915   -5.2972    0.2233 H   0  0  0  0  0  0  0  0  0  0  0  0
   -6.0553   -6.1878    1.5930 H   0  0  0  0  0  0  0  0  0  0  0  0
   -4.3421   -5.7916    1.5487 H   0  0  0  0  0  0  0  0  0  0  0  0
   -7.2110   -3.5060    0.6276 H   0  0  0  0  0  0  0  0  0  0  0  0
   -7.3691   -2.7790    2.2331 H   0  0  0  0  0  0  0  0  0  0  0  0
   -7.7803   -4.4687    1.9863 H   0  0  0  0  0  0  0  0  0  0  0  0
   -3.6503   -2.3475   -2.6403 H   0  0  0  0  0  0  0  0  0  0  0  0
   -2.3427   -1.8384   -1.5532 H   0  0  0  0  0  0  0  0  0  0  0  0
   -2.3109   -1.3556   -3.2645 H   0  0  0  0  0  0  0  0  0  0  0  0
   -6.0069    1.7157   -0.2075 H   0  0  0  0  0  0  0  0  0  0  0  0
   -6.4293    0.5691    1.0798 H   0  0  0  0  0  0  0  0  0  0  0  0
   -6.1915   -0.0026   -0.6058 H   0  0  0  0  0  0  0  0  0  0  0  0
   -2.2868    1.2823    3.4431 C   0  0  0  0  0  0  0  0  0  0  0  0
   -1.8276    0.3439    4.3651 C   0  0  0  0  0  0  0  0  0  0  0  0
   -0.6859    0.6857    5.1679 C   0  0  0  0  0  0  0  0  0  0  0  0
    0.1398    1.7619    4.7361 C   0  0  0  0  0  0  0  0  0  0  0  0
   -0.3781    2.6572    3.7828 C   0  0  0  0  0  0  0  0  0  0  0  0
   -1.6020    2.4673    3.1774 C   0  0  0  0  0  0  0  0  0  0  0  0
   -0.2813   -0.0091    6.3546 C   0  0  0  0  0  0  0  0  0  0  0  0
    1.0661    0.1055    6.7175 C   0  0  0  0  0  0  0  0  0  0  0  0
    1.8786    1.0990    6.1094 C   0  0  0  0  0  0  0  0  0  0  0  0
    1.3985    1.9675    5.1942 N   0  0  0  0  0  0  0  0  0  0  0  0
   -1.1079   -0.7830    7.2295 C   0  0  0  0  0  0  0  0  0  0  0  0
   -0.4682   -1.7004    8.1048 C   0  0  0  0  0  0  0  0  0  0  0  0
    0.8717   -1.7217    8.3074 N   0  0  0  0  0  0  0  0  0  0  0  0
    1.6083   -0.7664    7.6995 C   0  0  0  0  0  0  0  0  0  0  0  0
    2.9667   -0.6347    8.0221 C   0  0  0  0  0  0  0  0  0  0  0  0
    3.7748    0.3368    7.4508 C   0  0  0  0  0  0  0  0  0  0  0  0
    3.2162    1.1971    6.5190 C   0  0  0  0  0  0  0  0  0  0  0  0
   -2.5275   -0.6159    7.3190 C   0  0  0  0  0  0  0  0  0  0  0  0
   -3.2578   -1.5474    8.0520 C   0  0  0  0  0  0  0  0  0  0  0  0
   -2.6471   -2.5643    8.7830 C   0  0  0  0  0  0  0  0  0  0  0  0
   -1.2705   -2.5991    8.8299 C   0  0  0  0  0  0  0  0  0  0  0  0
   -3.1034    0.5104    6.7372 O   0  0  0  0  0  0  0  0  0  0  0  0
   -2.4962   -0.8895    4.3989 O   0  0  0  0  0  0  0  0  0  0  0  0
   -2.2143    3.5804    2.3125 C   0  0  0  0  0  0  0  0  0  0  0  0
   -3.4592   -3.5897    9.5881 C   0  0  0  0  0  0  0  0  0  0  0  0
    5.2485    0.5115    7.8489 C   0  0  0  0  0  0  0  0  0  0  0  0
   -4.9716   -3.4562    9.3232 C   0  0  0  0  0  0  0  0  0  0  0  0
   -3.0259   -5.0126    9.1884 C   0  0  0  0  0  0  0  0  0  0  0  0
   -3.2025   -3.3706   11.0894 C   0  0  0  0  0  0  0  0  0  0  0  0
    6.1369    0.4505    6.5925 C   0  0  0  0  0  0  0  0  0  0  0  0
    5.4227    1.8763    8.5384 C   0  0  0  0  0  0  0  0  0  0  0  0
    5.7119   -0.5916    8.8196 C   0  0  0  0  0  0  0  0  0  0  0  0
   -2.8279    4.6382    3.2454 C   0  0  0  0  0  0  0  0  0  0  0  0
   -3.3197    3.0340    1.3908 C   0  0  0  0  0  0  0  0  0  0  0  0
   -1.1314    4.2426    1.4388 C   0  0  0  0  0  0  0  0  0  0  0  0
    0.2081    3.5277    3.5563 H   0  0  0  0  0  0  0  0  0  0  0  0
   -3.1695    1.0288    2.8867 H   0  0  0  0  0  0  0  0  0  0  0  0
    3.8153    1.9756    6.0852 H   0  0  0  0  0  0  0  0  0  0  0  0
    3.3629   -1.3101    8.7559 H   0  0  0  0  0  0  0  0  0  0  0  0
   -0.7728   -3.3203    9.4511 H   0  0  0  0  0  0  0  0  0  0  0  0
   -4.3246   -1.4515    8.0831 H   0  0  0  0  0  0  0  0  0  0  0  0
   -4.5006    0.4525    6.5758 C   0  0  0  0  0  0  0  0  0  0  0  0
   -1.6662   -2.0152    4.6158 C   0  0  0  0  0  0  0  0  0  0  0  0
   -0.4308    4.8214    2.0385 H   0  0  0  0  0  0  0  0  0  0  0  0
   -1.5770    4.9220    0.7127 H   0  0  0  0  0  0  0  0  0  0  0  0
   -0.5640    3.4900    0.8962 H   0  0  0  0  0  0  0  0  0  0  0  0
   -4.1716    2.6720    1.9645 H   0  0  0  0  0  0  0  0  0  0  0  0
   -2.9502    2.2108    0.7836 H   0  0  0  0  0  0  0  0  0  0  0  0
   -3.6854    3.8079    0.7167 H   0  0  0  0  0  0  0  0  0  0  0  0
   -3.5991    4.1955    3.8750 H   0  0  0  0  0  0  0  0  0  0  0  0
   -3.2787    5.4494    2.6745 H   0  0  0  0  0  0  0  0  0  0  0  0
   -2.0687    5.0654    3.8998 H   0  0  0  0  0  0  0  0  0  0  0  0
    5.8988    1.2541    5.8976 H   0  0  0  0  0  0  0  0  0  0  0  0
    6.0053   -0.4974    6.0720 H   0  0  0  0  0  0  0  0  0  0  0  0
    7.1900    0.5447    6.8563 H   0  0  0  0  0  0  0  0  0  0  0  0
    5.5918   -1.5793    8.3754 H   0  0  0  0  0  0  0  0  0  0  0  0
    5.1475   -0.5588    9.7509 H   0  0  0  0  0  0  0  0  0  0  0  0
    6.7651   -0.4678    9.0705 H   0  0  0  0  0  0  0  0  0  0  0  0
    5.1487    2.6926    7.8712 H   0  0  0  0  0  0  0  0  0  0  0  0
    6.4565    2.0290    8.8471 H   0  0  0  0  0  0  0  0  0  0  0  0
    4.7917    1.9430    9.4241 H   0  0  0  0  0  0  0  0  0  0  0  0
   -3.4892   -2.3618   11.3852 H   0  0  0  0  0  0  0  0  0  0  0  0
   -2.1492   -3.5031   11.3329 H   0  0  0  0  0  0  0  0  0  0  0  0
   -3.7763   -4.0752   11.6908 H   0  0  0  0  0  0  0  0  0  0  0  0
   -3.1732   -5.1733    8.1208 H   0  0  0  0  0  0  0  0  0  0  0  0
   -3.6063   -5.7619    9.7259 H   0  0  0  0  0  0  0  0  0  0  0  0
   -1.9742   -5.1861    9.4112 H   0  0  0  0  0  0  0  0  0  0  0  0
   -5.1946   -3.5737    8.2631 H   0  0  0  0  0  0  0  0  0  0  0  0
   -5.3456   -2.4870    9.6515 H   0  0  0  0  0  0  0  0  0  0  0  0
   -5.5275   -4.2207    9.8655 H   0  0  0  0  0  0  0  0  0  0  0  0
   -1.9455   -2.7970    3.9115 H   0  0  0  0  0  0  0  0  0  0  0  0
   -1.8107   -2.3939    5.6266 H   0  0  0  0  0  0  0  0  0  0  0  0
   -0.6194   -1.7552    4.4576 H   0  0  0  0  0  0  0  0  0  0  0  0
   -4.8130    1.3044    5.9711 H   0  0  0  0  0  0  0  0  0  0  0  0
   -4.9942    0.5074    7.5465 H   0  0  0  0  0  0  0  0  0  0  0  0
   -4.7700   -0.4670    6.0541 H   0  0  0  0  0  0  0  0  0  0  0  0
  1  2  1  0  0  0  0
  1  6  1  0  0  0  0
  1 37  1  0  0  0  0
  2  3  2  0  0  0  0
  2 23  1  0  0  0  0
  3  4  1  0  0  0  0
  3  7  1  0  0  0  0
  4  5  1  0  0  0  0
  4 10  2  0  0  0  0
  5  6  2  0  0  0  0
  5 36  1  0  0  0  0
  6 24  1  0  0  0  0
  7  8  2  0  0  0  0
  7 11  1  0  0  0  0
  8  9  1  0  0  0  0
  8 14  1  0  0  0  0
  9 10  1  0  0  0  0
  9 17  2  0  0  0  0
 11 12  2  0  0  0  0
 11 18  1  0  0  0  0
 12 13  1  0  0  0  0
 12 21  1  0  0  0  0
 13 14  2  0  0  0  0
 14 15  1  0  0  0  0
 15 16  2  0  0  0  0
 15 39  1  0  0  0  0
 16 17  1  0  0  0  0
 16 26  1  0  0  0  0
 17 38  1  0  0  0  0
 18 19  2  0  0  0  0
 18 22  1  0  0  0  0
 19 20  1  0  0  0  0
 19 41  1  0  0  0  0
 20 21  2  0  0  0  0
 20 25  1  0  0  0  0
 21 40  1  0  0  0  0
 22 42  1  0  0  0  0
 23 43  1  0  0  0  0
 24 33  1  0  0  0  0
 24 34  1  0  0  0  0
 24 35  1  0  0  0  0
 25 27  1  0  0  0  0
 25 28  1  0  0  0  0
 25 29  1  0  0  0  0
 26 30  1  0  0  0  0
 26 31  1  0  0  0  0
 26 32  1  0  0  0  0
 27 68  1  0  0  0  0
 27 69  1  0  0  0  0
 27 70  1  0  0  0  0
 28 65  1  0  0  0  0
 28 66  1  0  0  0  0
 28 67  1  0  0  0  0
 29 62  1  0  0  0  0
 29 63  1  0  0  0  0
 29 64  1  0  0  0  0
 30 53  1  0  0  0  0
 30 54  1  0  0  0  0
 30 55  1  0  0  0  0
 31 59  1  0  0  0  0
 31 60  1  0  0  0  0
 31 61  1  0  0  0  0
 32 56  1  0  0  0  0
 32 57  1  0  0  0  0
 32 58  1  0  0  0  0
 33 50  1  0  0  0  0
 33 51  1  0  0  0  0
 33 52  1  0  0  0  0
 34 47  1  0  0  0  0
 34 48  1  0  0  0  0
 34 49  1  0  0  0  0
 35 44  1  0  0  0  0
 35 45  1  0  0  0  0
 35 46  1  0  0  0  0
 42 74  1  0  0  0  0
 42 75  1  0  0  0  0
 42 76  1  0  0  0  0
 43 71  1  0  0  0  0
 43 72  1  0  0  0  0
 43 73  1  0  0  0  0
 77 78  1  0  0  0  0
 77 82  1  0  0  0  0
 77113  1  0  0  0  0
 78 79  2  0  0  0  0
 78 99  1  0  0  0  0
 79 80  1  0  0  0  0
 79 83  1  0  0  0  0
 80 81  1  0  0  0  0
 80 86  2  0  0  0  0
 81 82  2  0  0  0  0
 81112  1  0  0  0  0
 82100  1  0  0  0  0
 83 84  2  0  0  0  0
 83 87  1  0  0  0  0
 84 85  1  0  0  0  0
 84 90  1  0  0  0  0
 85 86  1  0  0  0  0
 85 93  2  0  0  0  0
 87 88  2  0  0  0  0
 87 94  1  0  0  0  0
 88 89  1  0  0  0  0
 88 97  1  0  0  0  0
 89 90  2  0  0  0  0
 90 91  1  0  0  0  0
 91 92  2  0  0  0  0
 91115  1  0  0  0  0
 92 93  1  0  0  0  0
 92102  1  0  0  0  0
 93114  1  0  0  0  0
 94 95  2  0  0  0  0
 94 98  1  0  0  0  0
 95 96  1  0  0  0  0
 95117  1  0  0  0  0
 96 97  2  0  0  0  0
 96101  1  0  0  0  0
 97116  1  0  0  0  0
 98118  1  0  0  0  0
 99119  1  0  0  0  0
100109  1  0  0  0  0
100110  1  0  0  0  0
100111  1  0  0  0  0
101103  1  0  0  0  0
101104  1  0  0  0  0
101105  1  0  0  0  0
102106  1  0  0  0  0
102107  1  0  0  0  0
102108  1  0  0  0  0
103144  1  0  0  0  0
103145  1  0  0  0  0
103146  1  0  0  0  0
104141  1  0  0  0  0
104142  1  0  0  0  0
104143  1  0  0  0  0
105138  1  0  0  0  0
105139  1  0  0  0  0
105140  1  0  0  0  0
106129  1  0  0  0  0
106130  1  0  0  0  0
106131  1  0  0  0  0
107135  1  0  0  0  0
107136  1  0  0  0  0
107137  1  0  0  0  0
108132  1  0  0  0  0
108133  1  0  0  0  0
108134  1  0  0  0  0
109126  1  0  0  0  0
109127  1  0  0  0  0
109128  1  0  0  0  0
110123  1  0  0  0  0
110124  1  0  0  0  0
110125  1  0  0  0  0
111120  1  0  0  0  0
111121  1  0  0  0  0
111122  1  0  0  0  0
118150  1  0  0  0  0
118151  1  0  0  0  0
118152  1  0  0  0  0
119147  1  0  0  0  0
119148  1  0  0  0  0
119149  1  0  0  0  0
M  END
