 energy: -104.193435159158 gnorm: 0.000141601351 xtb: 6.7.1 (edcfbbe)
          03042511323D

 76 80  0     0  0            999 V2000
   -2.8332    1.5625   -2.4406 C   0  0  0  0  0  0  0  0  0  0  0  0
   -2.5129    0.5758   -1.5204 C   0  0  0  0  0  0  0  0  0  0  0  0
   -1.3820    0.7490   -0.6895 C   0  0  0  0  0  0  0  0  0  0  0  0
   -0.4616    1.7978   -1.0457 C   0  0  0  0  0  0  0  0  0  0  0  0
   -0.8451    2.7929   -1.9805 C   0  0  0  0  0  0  0  0  0  0  0  0
   -2.0388    2.7079   -2.6501 C   0  0  0  0  0  0  0  0  0  0  0  0
   -1.0112   -0.1018    0.3926 C   0  0  0  0  0  0  0  0  0  0  0  0
    0.3535   -0.1058    0.7312 C   0  0  0  0  0  0  0  0  0  0  0  0
    1.2277    0.8794    0.2038 C   0  0  0  0  0  0  0  0  0  0  0  0
    0.7821    1.8517   -0.5918 N   0  0  0  0  0  0  0  0  0  0  0  0
   -1.8515   -0.9492    1.1734 C   0  0  0  0  0  0  0  0  0  0  0  0
   -1.2093   -1.9965    1.9245 C   0  0  0  0  0  0  0  0  0  0  0  0
    0.1039   -2.0591    2.1019 N   0  0  0  0  0  0  0  0  0  0  0  0
    0.8755   -1.0958    1.6033 C   0  0  0  0  0  0  0  0  0  0  0  0
    2.2571   -1.0981    1.9005 C   0  0  0  0  0  0  0  0  0  0  0  0
    3.1154   -0.1187    1.4148 C   0  0  0  0  0  0  0  0  0  0  0  0
    2.5847    0.8679    0.5849 C   0  0  0  0  0  0  0  0  0  0  0  0
   -3.2385   -0.7719    1.3743 C   0  0  0  0  0  0  0  0  0  0  0  0
   -3.9609   -1.7485    2.0497 C   0  0  0  0  0  0  0  0  0  0  0  0
   -3.3626   -2.8848    2.6201 C   0  0  0  0  0  0  0  0  0  0  0  0
   -1.9908   -2.9753    2.5827 C   0  0  0  0  0  0  0  0  0  0  0  0
   -3.7711    0.3868    0.9381 O   0  0  0  0  0  0  0  0  0  0  0  0
   -3.1836   -0.5873   -1.3975 O   0  0  0  0  0  0  0  0  0  0  0  0
   -2.5131    3.7549   -3.6405 C   0  0  0  0  0  0  0  0  0  0  0  0
   -4.1760   -3.9604    3.3182 C   0  0  0  0  0  0  0  0  0  0  0  0
    4.5945   -0.0832    1.7574 C   0  0  0  0  0  0  0  0  0  0  0  0
   -5.6855   -3.7255    3.2208 C   0  0  0  0  0  0  0  0  0  0  0  0
   -3.8556   -5.3144    2.6686 C   0  0  0  0  0  0  0  0  0  0  0  0
   -3.7823   -3.9880    4.8021 C   0  0  0  0  0  0  0  0  0  0  0  0
    5.4054   -0.1571    0.4556 C   0  0  0  0  0  0  0  0  0  0  0  0
    4.8939    1.2338    2.4883 C   0  0  0  0  0  0  0  0  0  0  0  0
    5.0127   -1.2470    2.6581 C   0  0  0  0  0  0  0  0  0  0  0  0
   -3.8873    4.2722   -3.1905 C   0  0  0  0  0  0  0  0  0  0  0  0
   -2.6214    3.1184   -5.0338 C   0  0  0  0  0  0  0  0  0  0  0  0
   -1.5539    4.9439   -3.7239 C   0  0  0  0  0  0  0  0  0  0  0  0
   -0.1311    3.5777   -2.1580 H   0  0  0  0  0  0  0  0  0  0  0  0
   -3.7284    1.4498   -3.0295 H   0  0  0  0  0  0  0  0  0  0  0  0
    3.1988    1.6671    0.2000 H   0  0  0  0  0  0  0  0  0  0  0  0
    2.6094   -1.9022    2.5255 H   0  0  0  0  0  0  0  0  0  0  0  0
   -1.4507   -3.7594    3.0858 H   0  0  0  0  0  0  0  0  0  0  0  0
   -5.0256   -1.6244    2.1450 H   0  0  0  0  0  0  0  0  0  0  0  0
   -5.1299    0.6711    1.1944 C   0  0  0  0  0  0  0  0  0  0  0  0
   -4.2592   -0.8648   -2.2680 C   0  0  0  0  0  0  0  0  0  0  0  0
   -1.4338    5.4191   -2.7535 H   0  0  0  0  0  0  0  0  0  0  0  0
   -1.9561    5.6831   -4.4118 H   0  0  0  0  0  0  0  0  0  0  0  0
   -0.5799    4.6382   -4.0971 H   0  0  0  0  0  0  0  0  0  0  0  0
   -3.3595    2.3214   -5.0599 H   0  0  0  0  0  0  0  0  0  0  0  0
   -1.6610    2.7084   -5.3381 H   0  0  0  0  0  0  0  0  0  0  0  0
   -2.9167    3.8725   -5.7583 H   0  0  0  0  0  0  0  0  0  0  0  0
   -4.6355    3.4842   -3.1814 H   0  0  0  0  0  0  0  0  0  0  0  0
   -4.2270    5.0479   -3.8715 H   0  0  0  0  0  0  0  0  0  0  0  0
   -3.8222    4.6978   -2.1915 H   0  0  0  0  0  0  0  0  0  0  0  0
    5.1997    0.6866   -0.1970 H   0  0  0  0  0  0  0  0  0  0  0  0
    5.1763   -1.0736   -0.0838 H   0  0  0  0  0  0  0  0  0  0  0  0
    6.4672   -0.1533    0.6863 H   0  0  0  0  0  0  0  0  0  0  0  0
    4.8374   -2.2046    2.1736 H   0  0  0  0  0  0  0  0  0  0  0  0
    4.4856   -1.2206    3.6089 H   0  0  0  0  0  0  0  0  0  0  0  0
    6.0766   -1.1720    2.8673 H   0  0  0  0  0  0  0  0  0  0  0  0
    4.6763    2.0983    1.8676 H   0  0  0  0  0  0  0  0  0  0  0  0
    5.9454    1.2696    2.7594 H   0  0  0  0  0  0  0  0  0  0  0  0
    4.3033    1.3061    3.3990 H   0  0  0  0  0  0  0  0  0  0  0  0
   -3.9728   -3.0222    5.2650 H   0  0  0  0  0  0  0  0  0  0  0  0
   -2.7311   -4.2283    4.9304 H   0  0  0  0  0  0  0  0  0  0  0  0
   -4.3688   -4.7396    5.3236 H   0  0  0  0  0  0  0  0  0  0  0  0
   -4.1133   -5.2995    1.6118 H   0  0  0  0  0  0  0  0  0  0  0  0
   -4.4326   -6.0990    3.1508 H   0  0  0  0  0  0  0  0  0  0  0  0
   -2.8027   -5.5628    2.7613 H   0  0  0  0  0  0  0  0  0  0  0  0
   -6.0135   -3.6845    2.1843 H   0  0  0  0  0  0  0  0  0  0  0  0
   -5.9809   -2.8126    3.7332 H   0  0  0  0  0  0  0  0  0  0  0  0
   -6.2056   -4.5514    3.6993 H   0  0  0  0  0  0  0  0  0  0  0  0
   -4.5915   -1.8683   -2.0077 H   0  0  0  0  0  0  0  0  0  0  0  0
   -3.9408   -0.8524   -3.3141 H   0  0  0  0  0  0  0  0  0  0  0  0
   -5.0848   -0.1614   -2.1250 H   0  0  0  0  0  0  0  0  0  0  0  0
   -5.2971    1.6695    0.7934 H   0  0  0  0  0  0  0  0  0  0  0  0
   -5.3429    0.6748    2.2668 H   0  0  0  0  0  0  0  0  0  0  0  0
   -5.7921   -0.0382    0.6895 H   0  0  0  0  0  0  0  0  0  0  0  0
  1  2  2  0  0  0  0
  1 37  1  0  0  0  0
  2  3  1  0  0  0  0
  2 23  1  0  0  0  0
  3  4  2  0  0  0  0
  3  7  1  0  0  0  0
  4  5  1  0  0  0  0
  5  6  2  0  0  0  0
  5 36  1  0  0  0  0
  6  1  1  0  0  0  0
  6 24  1  0  0  0  0
  7 11  2  0  0  0  0
  8  7  1  0  0  0  0
  8  9  1  0  0  0  0
  9 10  2  0  0  0  0
 10  4  1  0  0  0  0
 11 12  1  0  0  0  0
 11 18  1  0  0  0  0
 12 13  2  0  0  0  0
 13 14  1  0  0  0  0
 14  8  1  0  0  0  0
 14 15  2  0  0  0  0
 15 16  1  0  0  0  0
 15 39  1  0  0  0  0
 16 17  2  0  0  0  0
 16 26  1  0  0  0  0
 17  9  1  0  0  0  0
 17 38  1  0  0  0  0
 18 19  2  0  0  0  0
 19 20  1  0  0  0  0
 19 41  1  0  0  0  0
 20 21  2  0  0  0  0
 20 25  1  0  0  0  0
 21 12  1  0  0  0  0
 21 40  1  0  0  0  0
 22 42  1  0  0  0  0
 22 18  1  0  0  0  0
 23 43  1  0  0  0  0
 24 33  1  0  0  0  0
 24 34  1  0  0  0  0
 24 35  1  0  0  0  0
 25 27  1  0  0  0  0
 25 28  1  0  0  0  0
 25 29  1  0  0  0  0
 26 30  1  0  0  0  0
 26 31  1  0  0  0  0
 26 32  1  0  0  0  0
 27 68  1  0  0  0  0
 27 69  1  0  0  0  0
 27 70  1  0  0  0  0
 28 65  1  0  0  0  0
 28 66  1  0  0  0  0
 28 67  1  0  0  0  0
 29 62  1  0  0  0  0
 29 63  1  0  0  0  0
 29 64  1  0  0  0  0
 30 53  1  0  0  0  0
 30 54  1  0  0  0  0
 30 55  1  0  0  0  0
 31 59  1  0  0  0  0
 31 60  1  0  0  0  0
 31 61  1  0  0  0  0
 32 56  1  0  0  0  0
 32 57  1  0  0  0  0
 32 58  1  0  0  0  0
 33 50  1  0  0  0  0
 33 51  1  0  0  0  0
 33 52  1  0  0  0  0
 34 47  1  0  0  0  0
 34 48  1  0  0  0  0
 34 49  1  0  0  0  0
 35 44  1  0  0  0  0
 35 45  1  0  0  0  0
 35 46  1  0  0  0  0
 42 74  1  0  0  0  0
 42 75  1  0  0  0  0
 42 76  1  0  0  0  0
 43 71  1  0  0  0  0
 43 72  1  0  0  0  0
 43 73  1  0  0  0  0
M  CHG  1   1   1
M  END
