energy: -111.158739023844 gnorm: 0.000159060613 xtb: 6.7.1 (edcfbbe)_energy: -111.158739023844 gnorm: 0.000159060613 xtb: 6.7.1 (edcfbbe)
 OpenBabel02282513453D

156164  0  0  0  0  0  0  0  0999 V2000
   -1.3629    2.2104   -0.6055 C   0  0  0  0  0  0  0  0  0  0  0  0
   -1.4177    0.8347   -0.7319 C   0  0  0  0  0  0  0  0  0  0  0  0
   -0.3002    0.0411   -0.3588 C   0  0  0  0  0  0  0  0  0  0  0  0
    0.8941    0.7256   -0.0586 C   0  0  0  0  0  0  0  0  0  0  0  0
    0.9168    2.1116    0.0636 C   0  0  0  0  0  0  0  0  0  0  0  0
   -0.2155    2.8737   -0.1619 C   0  0  0  0  0  0  0  0  0  0  0  0
   -0.3140   -1.3885   -0.3674 C   0  0  0  0  0  0  0  0  0  0  0  0
    0.9268   -2.0515   -0.5830 C   0  0  0  0  0  0  0  0  0  0  0  0
    2.1527   -1.3898   -0.3785 C   0  0  0  0  0  0  0  0  0  0  0  0
    2.1709    0.0057    0.0825 C   0  0  0  0  0  0  0  0  0  0  0  0
   -1.4703   -2.2071   -0.1725 C   0  0  0  0  0  0  0  0  0  0  0  0
   -1.4845   -3.5258   -0.6689 C   0  0  0  0  0  0  0  0  0  0  0  0
   -0.2763   -4.1355   -1.2491 C   0  0  0  0  0  0  0  0  0  0  0  0
    0.9701   -3.3943   -1.0089 C   0  0  0  0  0  0  0  0  0  0  0  0
    2.1882   -4.0168   -1.2367 C   0  0  0  0  0  0  0  0  0  0  0  0
    3.4040   -3.3738   -1.0150 C   0  0  0  0  0  0  0  0  0  0  0  0
    3.3567   -2.0574   -0.5729 C   0  0  0  0  0  0  0  0  0  0  0  0
   -2.5957   -1.7983    0.5922 C   0  0  0  0  0  0  0  0  0  0  0  0
   -3.7126   -2.6097    0.6694 C   0  0  0  0  0  0  0  0  0  0  0  0
   -3.7693   -3.8628    0.0534 C   0  0  0  0  0  0  0  0  0  0  0  0
   -2.6254   -4.3172   -0.5778 C   0  0  0  0  0  0  0  0  0  0  0  0
   -2.4697   -0.6321    1.2776 O   0  0  0  0  0  0  0  0  0  0  0  0
   -2.4750    0.1730   -1.2705 O   0  0  0  0  0  0  0  0  0  0  0  0
    3.1896    0.5495    0.4883 O   0  0  0  0  0  0  0  0  0  0  0  0
   -0.2967   -5.2148   -1.8256 O   0  0  0  0  0  0  0  0  0  0  0  0
   -3.5189   -0.1991    2.1041 C   0  0  0  0  0  0  0  0  0  0  0  0
   -3.5868    0.9007   -1.7238 C   0  0  0  0  0  0  0  0  0  0  0  0
   -5.0486   -4.6766    0.1412 C   0  0  0  0  0  0  0  0  0  0  0  0
   -4.9413   -6.0076   -0.6066 C   0  0  0  0  0  0  0  0  0  0  0  0
   -6.1975   -3.8686   -0.4795 C   0  0  0  0  0  0  0  0  0  0  0  0
   -0.2497    4.3820    0.0116 C   0  0  0  0  0  0  0  0  0  0  0  0
   -1.3460    4.7408    1.0255 C   0  0  0  0  0  0  0  0  0  0  0  0
    1.0799    4.9363    0.5288 C   0  0  0  0  0  0  0  0  0  0  0  0
   -0.5538    5.0428   -1.3407 C   0  0  0  0  0  0  0  0  0  0  0  0
    4.7025   -4.1214   -1.2597 C   0  0  0  0  0  0  0  0  0  0  0  0
    5.9360   -3.2661   -0.9600 C   0  0  0  0  0  0  0  0  0  0  0  0
    4.7560   -4.5522   -2.7324 C   0  0  0  0  0  0  0  0  0  0  0  0
    4.7394   -5.3606   -0.3540 C   0  0  0  0  0  0  0  0  0  0  0  0
    4.7094   -3.6801   -3.3814 H   0  0  0  0  0  0  0  0  0  0  0  0
    3.9280   -5.2089   -2.9835 H   0  0  0  0  0  0  0  0  0  0  0  0
    5.6850   -5.0818   -2.9324 H   0  0  0  0  0  0  0  0  0  0  0  0
    6.8353   -3.8490   -1.1482 H   0  0  0  0  0  0  0  0  0  0  0  0
    5.9508   -2.9515    0.0807 H   0  0  0  0  0  0  0  0  0  0  0  0
    5.9663   -2.3859   -1.5977 H   0  0  0  0  0  0  0  0  0  0  0  0
    5.6673   -5.9072   -0.5078 H   0  0  0  0  0  0  0  0  0  0  0  0
    3.9103   -6.0302   -0.5646 H   0  0  0  0  0  0  0  0  0  0  0  0
    4.6827   -5.0641    0.6914 H   0  0  0  0  0  0  0  0  0  0  0  0
    2.1506   -5.0364   -1.5907 H   0  0  0  0  0  0  0  0  0  0  0  0
    4.2538   -1.4952   -0.3670 H   0  0  0  0  0  0  0  0  0  0  0  0
   -2.5627   -5.3001   -1.0148 H   0  0  0  0  0  0  0  0  0  0  0  0
   -4.5671   -2.2708    1.2322 H   0  0  0  0  0  0  0  0  0  0  0  0
   -5.8889   -6.5386   -0.5414 H   0  0  0  0  0  0  0  0  0  0  0  0
   -4.1715   -6.6396   -0.1712 H   0  0  0  0  0  0  0  0  0  0  0  0
   -4.7152   -5.8467   -1.6576 H   0  0  0  0  0  0  0  0  0  0  0  0
   -6.3628   -2.9350    0.0515 H   0  0  0  0  0  0  0  0  0  0  0  0
   -7.1194   -4.4451   -0.4462 H   0  0  0  0  0  0  0  0  0  0  0  0
   -5.9728   -3.6366   -1.5183 H   0  0  0  0  0  0  0  0  0  0  0  0
   -3.1758    0.7373    2.5428 H   0  0  0  0  0  0  0  0  0  0  0  0
   -3.7265   -0.9168    2.9048 H   0  0  0  0  0  0  0  0  0  0  0  0
   -4.4365   -0.0156    1.5345 H   0  0  0  0  0  0  0  0  0  0  0  0
   -4.2786    0.1582   -2.1201 H   0  0  0  0  0  0  0  0  0  0  0  0
   -3.3152    1.6010   -2.5207 H   0  0  0  0  0  0  0  0  0  0  0  0
   -4.0738    1.4488   -0.9098 H   0  0  0  0  0  0  0  0  0  0  0  0
   -2.2309    2.7945   -0.8650 H   0  0  0  0  0  0  0  0  0  0  0  0
    1.8617    2.5533    0.3338 H   0  0  0  0  0  0  0  0  0  0  0  0
   -0.5438    6.1255   -1.2367 H   0  0  0  0  0  0  0  0  0  0  0  0
   -1.5288    4.7483   -1.7199 H   0  0  0  0  0  0  0  0  0  0  0  0
    0.1981    4.7595   -2.0739 H   0  0  0  0  0  0  0  0  0  0  0  0
    1.3427    4.4896    1.4843 H   0  0  0  0  0  0  0  0  0  0  0  0
    0.9950    6.0120    0.6696 H   0  0  0  0  0  0  0  0  0  0  0  0
    1.8824    4.7527   -0.1809 H   0  0  0  0  0  0  0  0  0  0  0  0
   -1.3717    5.8169    1.1826 H   0  0  0  0  0  0  0  0  0  0  0  0
   -1.1456    4.2574    1.9792 H   0  0  0  0  0  0  0  0  0  0  0  0
   -2.3274    4.4254    0.6818 H   0  0  0  0  0  0  0  0  0  0  0  0
   -5.3584   -4.9760    1.6152 C   0  0  0  0  0  0  0  0  0  0  0  0
   -6.2509   -5.5933    1.6903 H   0  0  0  0  0  0  0  0  0  0  0  0
   -5.5290   -4.0643    2.1817 H   0  0  0  0  0  0  0  0  0  0  0  0
   -4.5288   -5.5117    2.0713 H   0  0  0  0  0  0  0  0  0  0  0  0
   -1.3629    2.2104    5.3945 C   0  0  0  0  0  0  0  0  0  0  0  0
   -1.4177    0.8347    5.2681 C   0  0  0  0  0  0  0  0  0  0  0  0
   -0.3002    0.0411    5.6412 C   0  0  0  0  0  0  0  0  0  0  0  0
    0.8941    0.7256    5.9414 C   0  0  0  0  0  0  0  0  0  0  0  0
    0.9168    2.1116    6.0636 C   0  0  0  0  0  0  0  0  0  0  0  0
   -0.2155    2.8737    5.8381 C   0  0  0  0  0  0  0  0  0  0  0  0
   -0.3140   -1.3885    5.6326 C   0  0  0  0  0  0  0  0  0  0  0  0
    0.9268   -2.0515    5.4170 C   0  0  0  0  0  0  0  0  0  0  0  0
    2.1527   -1.3898    5.6215 C   0  0  0  0  0  0  0  0  0  0  0  0
    2.1709    0.0057    6.0825 C   0  0  0  0  0  0  0  0  0  0  0  0
   -1.4703   -2.2071    5.8275 C   0  0  0  0  0  0  0  0  0  0  0  0
   -1.4845   -3.5258    5.3311 C   0  0  0  0  0  0  0  0  0  0  0  0
   -0.2763   -4.1355    4.7509 C   0  0  0  0  0  0  0  0  0  0  0  0
    0.9701   -3.3943    4.9911 C   0  0  0  0  0  0  0  0  0  0  0  0
    2.1882   -4.0168    4.7633 C   0  0  0  0  0  0  0  0  0  0  0  0
    3.4040   -3.3738    4.9850 C   0  0  0  0  0  0  0  0  0  0  0  0
    3.3567   -2.0574    5.4271 C   0  0  0  0  0  0  0  0  0  0  0  0
   -2.5957   -1.7983    6.5922 C   0  0  0  0  0  0  0  0  0  0  0  0
   -3.7126   -2.6097    6.6694 C   0  0  0  0  0  0  0  0  0  0  0  0
   -3.7693   -3.8628    6.0534 C   0  0  0  0  0  0  0  0  0  0  0  0
   -2.6254   -4.3172    5.4222 C   0  0  0  0  0  0  0  0  0  0  0  0
   -2.4697   -0.6321    7.2776 O   0  0  0  0  0  0  0  0  0  0  0  0
   -2.4750    0.1730    4.7295 O   0  0  0  0  0  0  0  0  0  0  0  0
    3.1896    0.5495    6.4883 O   0  0  0  0  0  0  0  0  0  0  0  0
   -0.2967   -5.2148    4.1744 O   0  0  0  0  0  0  0  0  0  0  0  0
   -3.5189   -0.1991    8.1041 C   0  0  0  0  0  0  0  0  0  0  0  0
   -3.5868    0.9007    4.2762 C   0  0  0  0  0  0  0  0  0  0  0  0
   -5.0486   -4.6766    6.1412 C   0  0  0  0  0  0  0  0  0  0  0  0
   -4.9413   -6.0076    5.3934 C   0  0  0  0  0  0  0  0  0  0  0  0
   -6.1975   -3.8686    5.5205 C   0  0  0  0  0  0  0  0  0  0  0  0
   -0.2497    4.3820    6.0116 C   0  0  0  0  0  0  0  0  0  0  0  0
   -1.3460    4.7408    7.0255 C   0  0  0  0  0  0  0  0  0  0  0  0
    1.0799    4.9363    6.5288 C   0  0  0  0  0  0  0  0  0  0  0  0
   -0.5538    5.0428    4.6593 C   0  0  0  0  0  0  0  0  0  0  0  0
    4.7025   -4.1214    4.7403 C   0  0  0  0  0  0  0  0  0  0  0  0
    5.9360   -3.2661    5.0400 C   0  0  0  0  0  0  0  0  0  0  0  0
    4.7560   -4.5522    3.2676 C   0  0  0  0  0  0  0  0  0  0  0  0
    4.7394   -5.3606    5.6460 C   0  0  0  0  0  0  0  0  0  0  0  0
    4.7094   -3.6801    2.6186 H   0  0  0  0  0  0  0  0  0  0  0  0
    3.9280   -5.2089    3.0165 H   0  0  0  0  0  0  0  0  0  0  0  0
    5.6850   -5.0818    3.0676 H   0  0  0  0  0  0  0  0  0  0  0  0
    6.8353   -3.8490    4.8518 H   0  0  0  0  0  0  0  0  0  0  0  0
    5.9508   -2.9515    6.0807 H   0  0  0  0  0  0  0  0  0  0  0  0
    5.9663   -2.3859    4.4023 H   0  0  0  0  0  0  0  0  0  0  0  0
    5.6673   -5.9072    5.4922 H   0  0  0  0  0  0  0  0  0  0  0  0
    3.9103   -6.0302    5.4354 H   0  0  0  0  0  0  0  0  0  0  0  0
    4.6827   -5.0641    6.6914 H   0  0  0  0  0  0  0  0  0  0  0  0
    2.1506   -5.0364    4.4093 H   0  0  0  0  0  0  0  0  0  0  0  0
    4.2538   -1.4952    5.6330 H   0  0  0  0  0  0  0  0  0  0  0  0
   -2.5627   -5.3001    4.9852 H   0  0  0  0  0  0  0  0  0  0  0  0
   -4.5671   -2.2708    7.2322 H   0  0  0  0  0  0  0  0  0  0  0  0
   -5.8889   -6.5386    5.4586 H   0  0  0  0  0  0  0  0  0  0  0  0
   -4.1715   -6.6396    5.8288 H   0  0  0  0  0  0  0  0  0  0  0  0
   -4.7152   -5.8467    4.3424 H   0  0  0  0  0  0  0  0  0  0  0  0
   -6.3628   -2.9350    6.0515 H   0  0  0  0  0  0  0  0  0  0  0  0
   -7.1194   -4.4451    5.5538 H   0  0  0  0  0  0  0  0  0  0  0  0
   -5.9728   -3.6366    4.4817 H   0  0  0  0  0  0  0  0  0  0  0  0
   -3.1758    0.7373    8.5428 H   0  0  0  0  0  0  0  0  0  0  0  0
   -3.7265   -0.9168    8.9048 H   0  0  0  0  0  0  0  0  0  0  0  0
   -4.4365   -0.0156    7.5345 H   0  0  0  0  0  0  0  0  0  0  0  0
   -4.2786    0.1582    3.8799 H   0  0  0  0  0  0  0  0  0  0  0  0
   -3.3152    1.6010    3.4793 H   0  0  0  0  0  0  0  0  0  0  0  0
   -4.0738    1.4488    5.0902 H   0  0  0  0  0  0  0  0  0  0  0  0
   -2.2309    2.7945    5.1350 H   0  0  0  0  0  0  0  0  0  0  0  0
    1.8617    2.5533    6.3338 H   0  0  0  0  0  0  0  0  0  0  0  0
   -0.5438    6.1255    4.7633 H   0  0  0  0  0  0  0  0  0  0  0  0
   -1.5288    4.7483    4.2801 H   0  0  0  0  0  0  0  0  0  0  0  0
    0.1981    4.7595    3.9261 H   0  0  0  0  0  0  0  0  0  0  0  0
    1.3427    4.4896    7.4843 H   0  0  0  0  0  0  0  0  0  0  0  0
    0.9950    6.0120    6.6696 H   0  0  0  0  0  0  0  0  0  0  0  0
    1.8824    4.7527    5.8191 H   0  0  0  0  0  0  0  0  0  0  0  0
   -1.3717    5.8169    7.1826 H   0  0  0  0  0  0  0  0  0  0  0  0
   -1.1456    4.2574    7.9792 H   0  0  0  0  0  0  0  0  0  0  0  0
   -2.3274    4.4254    6.6818 H   0  0  0  0  0  0  0  0  0  0  0  0
   -5.3584   -4.9760    7.6152 C   0  0  0  0  0  0  0  0  0  0  0  0
   -6.2509   -5.5933    7.6903 H   0  0  0  0  0  0  0  0  0  0  0  0
   -5.5290   -4.0643    8.1817 H   0  0  0  0  0  0  0  0  0  0  0  0
   -4.5288   -5.5117    8.0713 H   0  0  0  0  0  0  0  0  0  0  0  0
  1  2  2  0  0  0  0
  1 64  1  0  0  0  0
  2  3  1  0  0  0  0
  2 23  1  0  0  0  0
  3  4  2  0  0  0  0
  3  7  1  0  0  0  0
  4  5  1  0  0  0  0
  5  6  2  0  0  0  0
  5 65  1  0  0  0  0
  6 31  1  0  0  0  0
  6  1  1  0  0  0  0
  7  8  1  0  0  0  0
  8  9  2  0  0  0  0
  9 10  1  0  0  0  0
 10  4  1  0  0  0  0
 10 24  2  0  0  0  0
 11 12  2  0  0  0  0
 11 18  1  0  0  0  0
 11  7  1  0  0  0  0
 12 13  1  0  0  0  0
 13 14  1  0  0  0  0
 13 25  2  0  0  0  0
 14  8  1  0  0  0  0
 14 15  2  0  0  0  0
 15 16  1  0  0  0  0
 15 48  1  0  0  0  0
 16 35  1  0  0  0  0
 16 17  2  0  0  0  0
 17  9  1  0  0  0  0
 17 49  1  0  0  0  0
 18 19  2  0  0  0  0
 19 20  1  0  0  0  0
 19 51  1  0  0  0  0
 20 28  1  0  0  0  0
 20 21  2  0  0  0  0
 21 12  1  0  0  0  0
 21 50  1  0  0  0  0
 22 26  1  0  0  0  0
 22 18  1  0  0  0  0
 23 27  1  0  0  0  0
 26 58  1  0  0  0  0
 26 59  1  0  0  0  0
 26 60  1  0  0  0  0
 27 61  1  0  0  0  0
 27 62  1  0  0  0  0
 27 63  1  0  0  0  0
 28 29  1  0  0  0  0
 28 30  1  0  0  0  0
 28 75  1  0  0  0  0
 29 52  1  0  0  0  0
 29 53  1  0  0  0  0
 29 54  1  0  0  0  0
 30 55  1  0  0  0  0
 30 56  1  0  0  0  0
 30 57  1  0  0  0  0
 31 32  1  0  0  0  0
 31 33  1  0  0  0  0
 31 34  1  0  0  0  0
 32 72  1  0  0  0  0
 32 73  1  0  0  0  0
 32 74  1  0  0  0  0
 33 69  1  0  0  0  0
 33 70  1  0  0  0  0
 33 71  1  0  0  0  0
 34 66  1  0  0  0  0
 34 67  1  0  0  0  0
 34 68  1  0  0  0  0
 35 36  1  0  0  0  0
 35 37  1  0  0  0  0
 35 38  1  0  0  0  0
 36 42  1  0  0  0  0
 36 43  1  0  0  0  0
 36 44  1  0  0  0  0
 37 39  1  0  0  0  0
 37 40  1  0  0  0  0
 37 41  1  0  0  0  0
 38 45  1  0  0  0  0
 38 46  1  0  0  0  0
 38 47  1  0  0  0  0
 75 76  1  0  0  0  0
 75 77  1  0  0  0  0
 75 78  1  0  0  0  0
 79 80  2  0  0  0  0
 79142  1  0  0  0  0
 80 81  1  0  0  0  0
 80101  1  0  0  0  0
 81 82  2  0  0  0  0
 81 85  1  0  0  0  0
 82 83  1  0  0  0  0
 83 84  2  0  0  0  0
 83143  1  0  0  0  0
 84109  1  0  0  0  0
 84 79  1  0  0  0  0
 85 86  1  0  0  0  0
 86 87  2  0  0  0  0
 87 88  1  0  0  0  0
 88 82  1  0  0  0  0
 88102  2  0  0  0  0
 89 90  2  0  0  0  0
 89 96  1  0  0  0  0
 89 85  1  0  0  0  0
 90 91  1  0  0  0  0
 91 92  1  0  0  0  0
 91103  2  0  0  0  0
 92 86  1  0  0  0  0
 92 93  2  0  0  0  0
 93 94  1  0  0  0  0
 93126  1  0  0  0  0
 94113  1  0  0  0  0
 94 95  2  0  0  0  0
 95 87  1  0  0  0  0
 95127  1  0  0  0  0
 96 97  2  0  0  0  0
 97 98  1  0  0  0  0
 97129  1  0  0  0  0
 98106  1  0  0  0  0
 98 99  2  0  0  0  0
 99 90  1  0  0  0  0
 99128  1  0  0  0  0
100104  1  0  0  0  0
100 96  1  0  0  0  0
101105  1  0  0  0  0
104136  1  0  0  0  0
104137  1  0  0  0  0
104138  1  0  0  0  0
105139  1  0  0  0  0
105140  1  0  0  0  0
105141  1  0  0  0  0
106107  1  0  0  0  0
106108  1  0  0  0  0
106153  1  0  0  0  0
107130  1  0  0  0  0
107131  1  0  0  0  0
107132  1  0  0  0  0
108133  1  0  0  0  0
108134  1  0  0  0  0
108135  1  0  0  0  0
109110  1  0  0  0  0
109111  1  0  0  0  0
109112  1  0  0  0  0
110150  1  0  0  0  0
110151  1  0  0  0  0
110152  1  0  0  0  0
111147  1  0  0  0  0
111148  1  0  0  0  0
111149  1  0  0  0  0
112144  1  0  0  0  0
112145  1  0  0  0  0
112146  1  0  0  0  0
113114  1  0  0  0  0
113115  1  0  0  0  0
113116  1  0  0  0  0
114120  1  0  0  0  0
114121  1  0  0  0  0
114122  1  0  0  0  0
115117  1  0  0  0  0
115118  1  0  0  0  0
115119  1  0  0  0  0
116123  1  0  0  0  0
116124  1  0  0  0  0
116125  1  0  0  0  0
153154  1  0  0  0  0
153155  1  0  0  0  0
153156  1  0  0  0  0
M  END
