 energy: -26.769415429832 gnorm: 0.001555041949 xtb: 6.7.1 (edcfbbe)
          03032516463D

150158  0     0  0            999 V2000
   -0.9564    4.5796   -0.0877 C   0  0  0  0  0  0  0  0  0  0  0  0
   -0.0471   -1.9444    3.1741 C   0  0  0  0  0  0  0  0  0  0  0  0
   -3.5321    1.3022   -3.0796 C   0  0  0  0  0  0  0  0  0  0  0  0
   -3.0614    0.5404   -2.0141 C   0  0  0  0  0  0  0  0  0  0  0  0
   -2.2843    1.1907   -1.0051 C   0  0  0  0  0  0  0  0  0  0  0  0
   -1.8579    2.5270   -1.2084 C   0  0  0  0  0  0  0  0  0  0  0  0
   -2.3392    3.2158   -2.3210 C   0  0  0  0  0  0  0  0  0  0  0  0
   -3.1877    2.6261   -3.2246 C   0  0  0  0  0  0  0  0  0  0  0  0
   -1.9006    0.5203    0.2053 C   0  0  0  0  0  0  0  0  0  0  0  0
   -0.7707    1.0079    0.9119 C   0  0  0  0  0  0  0  0  0  0  0  0
   -0.2923    2.3150    0.6431 C   0  0  0  0  0  0  0  0  0  0  0  0
   -0.9642    3.1141   -0.2951 N   0  0  0  0  0  0  0  0  0  0  0  0
   -2.6640   -0.5303    0.8200 C   0  0  0  0  0  0  0  0  0  0  0  0
   -2.0351   -1.3410    1.7993 C   0  0  0  0  0  0  0  0  0  0  0  0
   -0.7504   -1.0149    2.2638 N   0  0  0  0  0  0  0  0  0  0  0  0
   -0.2118    0.2478    1.9714 C   0  0  0  0  0  0  0  0  0  0  0  0
    0.7853    0.8358    2.7469 C   0  0  0  0  0  0  0  0  0  0  0  0
    1.2326    2.1129    2.5057 C   0  0  0  0  0  0  0  0  0  0  0  0
    0.7232    2.8260    1.4470 C   0  0  0  0  0  0  0  0  0  0  0  0
   -4.0849   -0.6386    0.6495 C   0  0  0  0  0  0  0  0  0  0  0  0
   -4.7628   -1.6747    1.2864 C   0  0  0  0  0  0  0  0  0  0  0  0
   -4.1189   -2.5227    2.1543 C   0  0  0  0  0  0  0  0  0  0  0  0
   -2.7812   -2.3499    2.4058 C   0  0  0  0  0  0  0  0  0  0  0  0
   -4.8542    0.3493   -0.0050 O   0  0  0  0  0  0  0  0  0  0  0  0
   -3.2732   -0.8327   -1.9213 O   0  0  0  0  0  0  0  0  0  0  0  0
   -4.1610    0.8559   -3.8302 H   0  0  0  0  0  0  0  0  0  0  0  0
   -2.0180    4.2213   -2.5235 H   0  0  0  0  0  0  0  0  0  0  0  0
   -5.8282   -1.7629    1.1503 H   0  0  0  0  0  0  0  0  0  0  0  0
   -2.3287   -2.9750    3.1527 H   0  0  0  0  0  0  0  0  0  0  0  0
    1.1696    0.3388    3.6179 H   0  0  0  0  0  0  0  0  0  0  0  0
    1.1005    3.8188    1.2783 H   0  0  0  0  0  0  0  0  0  0  0  0
    0.3192   -3.2588    2.4970 C   0  0  0  0  0  0  0  0  0  0  0  0
    0.9994   -4.2373    3.4406 C   0  0  0  0  0  0  0  0  0  0  0  0
   -1.6478    4.9547    1.2209 C   0  0  0  0  0  0  0  0  0  0  0  0
   -1.5955    6.4445    1.5139 C   0  0  0  0  0  0  0  0  0  0  0  0
   -5.1002    1.4708    0.8119 C   0  0  0  0  0  0  0  0  0  0  0  0
   -4.3949   -1.3128   -2.6228 C   0  0  0  0  0  0  0  0  0  0  0  0
   -3.8626    3.6335   -4.6872 S   0  0  0  0  0  0  0  0  0  0  0  0
   -2.7299    4.7100   -4.4080 F   0  0  0  0  0  0  0  0  0  0  0  0
   -2.8671    2.8188   -5.6198 F   0  0  0  0  0  0  0  0  0  0  0  0
   -4.8057    4.3701   -3.6413 F   0  0  0  0  0  0  0  0  0  0  0  0
   -4.4295    4.4767   -5.9038 F   0  0  0  0  0  0  0  0  0  0  0  0
   -4.9648    2.5101   -4.8933 F   0  0  0  0  0  0  0  0  0  0  0  0
   -5.0888   -3.8646    3.0844 S   0  0  0  0  0  0  0  0  0  0  0  0
   -6.3385   -3.5540    2.1626 F   0  0  0  0  0  0  0  0  0  0  0  0
   -5.5289   -2.7080    4.0714 F   0  0  0  0  0  0  0  0  0  0  0  0
   -5.8877   -4.9569    3.9016 F   0  0  0  0  0  0  0  0  0  0  0  0
   -4.5610   -4.9079    2.0145 F   0  0  0  0  0  0  0  0  0  0  0  0
   -3.7934   -4.1070    3.9540 F   0  0  0  0  0  0  0  0  0  0  0  0
    2.4979    2.9126    3.6797 S   0  0  0  0  0  0  0  0  0  0  0  0
    3.6364    2.2809    2.7805 F   0  0  0  0  0  0  0  0  0  0  0  0
    2.4700    4.1999    2.7597 F   0  0  0  0  0  0  0  0  0  0  0  0
    3.5183    3.5827    4.6754 F   0  0  0  0  0  0  0  0  0  0  0  0
    1.2697    3.4740    4.4992 F   0  0  0  0  0  0  0  0  0  0  0  0
    2.4470    1.6029    4.5615 F   0  0  0  0  0  0  0  0  0  0  0  0
   -0.6713   -2.1084    4.0556 H   0  0  0  0  0  0  0  0  0  0  0  0
    0.8655   -1.4823    3.5491 H   0  0  0  0  0  0  0  0  0  0  0  0
    0.9665   -3.0457    1.6371 H   0  0  0  0  0  0  0  0  0  0  0  0
   -0.5778   -3.7154    2.0629 H   0  0  0  0  0  0  0  0  0  0  0  0
    1.9210   -3.8177    3.8461 H   0  0  0  0  0  0  0  0  0  0  0  0
    1.2549   -5.1742    2.9428 H   0  0  0  0  0  0  0  0  0  0  0  0
    0.3544   -4.4802    4.2861 H   0  0  0  0  0  0  0  0  0  0  0  0
   -4.5846   -2.3357   -2.2931 H   0  0  0  0  0  0  0  0  0  0  0  0
   -4.1897   -1.3111   -3.6942 H   0  0  0  0  0  0  0  0  0  0  0  0
   -5.2609   -0.6918   -2.3834 H   0  0  0  0  0  0  0  0  0  0  0  0
   -5.5579    2.2583    0.2109 H   0  0  0  0  0  0  0  0  0  0  0  0
   -4.1488    1.8092    1.2236 H   0  0  0  0  0  0  0  0  0  0  0  0
   -5.7625    1.1833    1.6310 H   0  0  0  0  0  0  0  0  0  0  0  0
   -1.4489    5.0832   -0.9194 H   0  0  0  0  0  0  0  0  0  0  0  0
    0.0767    4.9333   -0.1074 H   0  0  0  0  0  0  0  0  0  0  0  0
   -1.2017    4.3901    2.0506 H   0  0  0  0  0  0  0  0  0  0  0  0
   -2.6883    4.6047    1.1910 H   0  0  0  0  0  0  0  0  0  0  0  0
   -0.5647    6.7944    1.5876 H   0  0  0  0  0  0  0  0  0  0  0  0
   -2.0954    6.6912    2.4524 H   0  0  0  0  0  0  0  0  0  0  0  0
   -2.0769    7.0191    0.7213 H   0  0  0  0  0  0  0  0  0  0  0  0
    1.1523    2.1269    6.9914 C   0  0  0  0  0  0  0  0  0  0  0  0
   -0.1349   -2.6910   12.4848 C   0  0  0  0  0  0  0  0  0  0  0  0
   -3.2253   -0.0126    5.6529 C   0  0  0  0  0  0  0  0  0  0  0  0
   -2.8178   -0.7177    6.7875 C   0  0  0  0  0  0  0  0  0  0  0  0
   -1.8168   -0.1323    7.6324 C   0  0  0  0  0  0  0  0  0  0  0  0
   -1.0326    0.9304    7.1076 C   0  0  0  0  0  0  0  0  0  0  0  0
   -1.5049    1.6027    5.9782 C   0  0  0  0  0  0  0  0  0  0  0  0
   -2.6083    1.1681    5.2873 C   0  0  0  0  0  0  0  0  0  0  0  0
   -1.5002   -0.6633    8.9326 C   0  0  0  0  0  0  0  0  0  0  0  0
   -0.1920   -0.4390    9.4319 C   0  0  0  0  0  0  0  0  0  0  0  0
    0.6700    0.4844    8.7823 C   0  0  0  0  0  0  0  0  0  0  0  0
    0.2229    1.2011    7.6677 N   0  0  0  0  0  0  0  0  0  0  0  0
   -2.4124   -1.4283    9.7432 C   0  0  0  0  0  0  0  0  0  0  0  0
   -1.8829   -2.2493   10.7749 C   0  0  0  0  0  0  0  0  0  0  0  0
   -0.5700   -2.0602   11.2183 N   0  0  0  0  0  0  0  0  0  0  0  0
    0.2669   -1.1448   10.5756 C   0  0  0  0  0  0  0  0  0  0  0  0
    1.5650   -0.9177   11.0192 C   0  0  0  0  0  0  0  0  0  0  0  0
    2.3952   -0.0198   10.3972 C   0  0  0  0  0  0  0  0  0  0  0  0
    1.9502    0.6686    9.2961 C   0  0  0  0  0  0  0  0  0  0  0  0
   -3.8414   -1.3509    9.6131 C   0  0  0  0  0  0  0  0  0  0  0  0
   -4.6193   -2.3063   10.2681 C   0  0  0  0  0  0  0  0  0  0  0  0
   -4.0632   -3.2328   11.1205 C   0  0  0  0  0  0  0  0  0  0  0  0
   -2.7209   -3.1791   11.3886 C   0  0  0  0  0  0  0  0  0  0  0  0
   -4.3952   -0.2984    8.8947 O   0  0  0  0  0  0  0  0  0  0  0  0
   -3.2610   -1.9875    7.1421 O   0  0  0  0  0  0  0  0  0  0  0  0
   -4.0261   -0.3855    5.0376 H   0  0  0  0  0  0  0  0  0  0  0  0
   -1.0179    2.4934    5.6213 H   0  0  0  0  0  0  0  0  0  0  0  0
   -5.6849   -2.3354   10.1231 H   0  0  0  0  0  0  0  0  0  0  0  0
   -2.3205   -3.8942   12.0841 H   0  0  0  0  0  0  0  0  0  0  0  0
    1.9585   -1.4584   11.8603 H   0  0  0  0  0  0  0  0  0  0  0  0
    2.6290    1.3651    8.8391 H   0  0  0  0  0  0  0  0  0  0  0  0
    0.5990   -4.0054   12.2600 C   0  0  0  0  0  0  0  0  0  0  0  0
    1.0508   -4.6627   13.5546 C   0  0  0  0  0  0  0  0  0  0  0  0
    1.2507    3.4770    7.6901 C   0  0  0  0  0  0  0  0  0  0  0  0
    2.2892    4.3963    7.0649 C   0  0  0  0  0  0  0  0  0  0  0  0
   -5.7980   -0.3023    8.7920 C   0  0  0  0  0  0  0  0  0  0  0  0
   -4.1162   -2.6243    6.2386 C   0  0  0  0  0  0  0  0  0  0  0  0
   -3.1977    2.2190    3.8116 S   0  0  0  0  0  0  0  0  0  0  0  0
   -2.9716    3.5077    4.7000 F   0  0  0  0  0  0  0  0  0  0  0  0
   -1.6926    2.2956    3.3486 F   0  0  0  0  0  0  0  0  0  0  0  0
   -4.6752    2.0902    4.3567 F   0  0  0  0  0  0  0  0  0  0  0  0
   -3.6453    3.0731    2.5705 F   0  0  0  0  0  0  0  0  0  0  0  0
   -3.3923    0.8709    3.0298 F   0  0  0  0  0  0  0  0  0  0  0  0
   -5.1294   -4.5604   11.9672 S   0  0  0  0  0  0  0  0  0  0  0  0
   -6.3717   -4.0243   11.1396 F   0  0  0  0  0  0  0  0  0  0  0  0
   -5.4255   -3.4902   13.1033 F   0  0  0  0  0  0  0  0  0  0  0  0
   -6.0195   -5.6666   12.6724 F   0  0  0  0  0  0  0  0  0  0  0  0
   -4.7443   -5.5285   10.7676 F   0  0  0  0  0  0  0  0  0  0  0  0
   -3.8382   -5.0374   12.7579 F   0  0  0  0  0  0  0  0  0  0  0  0
    4.1515    0.2653   11.0635 S   0  0  0  0  0  0  0  0  0  0  0  0
    4.6557   -0.7616    9.9619 F   0  0  0  0  0  0  0  0  0  0  0  0
    4.2981    1.4549   10.0237 F   0  0  0  0  0  0  0  0  0  0  0  0
    5.6150    0.5061   11.6187 F   0  0  0  0  0  0  0  0  0  0  0  0
    3.5073    1.2677   12.1144 F   0  0  0  0  0  0  0  0  0  0  0  0
    3.9156   -0.9371   12.0719 F   0  0  0  0  0  0  0  0  0  0  0  0
   -1.0046   -2.8375   13.1294 H   0  0  0  0  0  0  0  0  0  0  0  0
    0.4865   -1.9857   13.0408 H   0  0  0  0  0  0  0  0  0  0  0  0
    1.4603   -3.8289   11.6042 H   0  0  0  0  0  0  0  0  0  0  0  0
   -0.0489   -4.6869   11.6951 H   0  0  0  0  0  0  0  0  0  0  0  0
    1.7233   -4.0104   14.1136 H   0  0  0  0  0  0  0  0  0  0  0  0
    1.5787   -5.6007   13.3737 H   0  0  0  0  0  0  0  0  0  0  0  0
    0.2009   -4.8841   14.2018 H   0  0  0  0  0  0  0  0  0  0  0  0
   -4.3931   -3.5987    6.6467 H   0  0  0  0  0  0  0  0  0  0  0  0
   -3.5780   -2.7755    5.3056 H   0  0  0  0  0  0  0  0  0  0  0  0
   -5.0166   -2.0308    6.0743 H   0  0  0  0  0  0  0  0  0  0  0  0
   -6.0919    0.5532    8.1816 H   0  0  0  0  0  0  0  0  0  0  0  0
   -6.2397   -0.2042    9.7851 H   0  0  0  0  0  0  0  0  0  0  0  0
   -6.1301   -1.2199    8.3039 H   0  0  0  0  0  0  0  0  0  0  0  0
    0.8454    2.2579    5.9531 H   0  0  0  0  0  0  0  0  0  0  0  0
    2.1314    1.6466    6.9093 H   0  0  0  0  0  0  0  0  0  0  0  0
    1.4769    3.3203    8.7517 H   0  0  0  0  0  0  0  0  0  0  0  0
    0.2632    3.9552    7.6807 H   0  0  0  0  0  0  0  0  0  0  0  0
    3.2770    3.9311    7.0583 H   0  0  0  0  0  0  0  0  0  0  0  0
    2.3716    5.3464    7.5952 H   0  0  0  0  0  0  0  0  0  0  0  0
    2.0428    4.6166    6.0243 H   0  0  0  0  0  0  0  0  0  0  0  0
  1 34  1  0  0  0  0
  1 69  1  0  0  0  0
  1 70  1  0  0  0  0
  2 32  1  0  0  0  0
  2 56  1  0  0  0  0
  2 57  1  0  0  0  0
  3  4  2  0  0  0  0
  3 26  1  0  0  0  0
  4  5  1  0  0  0  0
  4 25  1  0  0  0  0
  5  6  2  0  0  0  0
  5  9  1  0  0  0  0
  6  7  1  0  0  0  0
  7  8  2  0  0  0  0
  7 27  1  0  0  0  0
  8 38  1  0  0  0  0
  8  3  1  0  0  0  0
  9 10  1  0  0  0  0
 10 11  2  0  0  0  0
 11 12  1  0  0  0  0
 12  1  1  0  0  0  0
 12  6  1  0  0  0  0
 13 14  2  0  0  0  0
 13 20  1  0  0  0  0
 13  9  1  0  0  0  0
 14 15  1  0  0  0  0
 15  2  1  0  0  0  0
 15 16  1  0  0  0  0
 16 10  1  0  0  0  0
 16 17  2  0  0  0  0
 17 18  1  0  0  0  0
 17 30  1  0  0  0  0
 18 50  1  0  0  0  0
 18 19  2  0  0  0  0
 19 11  1  0  0  0  0
 19 31  1  0  0  0  0
 20 21  2  0  0  0  0
 21 22  1  0  0  0  0
 21 28  1  0  0  0  0
 22 44  1  0  0  0  0
 22 23  2  0  0  0  0
 23 14  1  0  0  0  0
 23 29  1  0  0  0  0
 24 36  1  0  0  0  0
 24 20  1  0  0  0  0
 25 37  1  0  0  0  0
 32 33  1  0  0  0  0
 32 58  1  0  0  0  0
 32 59  1  0  0  0  0
 33 60  1  0  0  0  0
 33 61  1  0  0  0  0
 33 62  1  0  0  0  0
 34 35  1  0  0  0  0
 34 71  1  0  0  0  0
 34 72  1  0  0  0  0
 35 73  1  0  0  0  0
 35 74  1  0  0  0  0
 35 75  1  0  0  0  0
 36 66  1  0  0  0  0
 36 67  1  0  0  0  0
 36 68  1  0  0  0  0
 37 63  1  0  0  0  0
 37 64  1  0  0  0  0
 37 65  1  0  0  0  0
 38 39  1  0  0  0  0
 38 40  1  0  0  0  0
 38 41  1  0  0  0  0
 38 42  1  0  0  0  0
 38 43  1  0  0  0  0
 44 45  1  0  0  0  0
 44 46  1  0  0  0  0
 44 47  1  0  0  0  0
 44 48  1  0  0  0  0
 44 49  1  0  0  0  0
 50 51  1  0  0  0  0
 50 52  1  0  0  0  0
 50 53  1  0  0  0  0
 50 54  1  0  0  0  0
 50 55  1  0  0  0  0
 76109  1  0  0  0  0
 76144  1  0  0  0  0
 76145  1  0  0  0  0
 77107  1  0  0  0  0
 77131  1  0  0  0  0
 77132  1  0  0  0  0
 78 79  2  0  0  0  0
 78101  1  0  0  0  0
 79 80  1  0  0  0  0
 79100  1  0  0  0  0
 80 81  2  0  0  0  0
 80 84  1  0  0  0  0
 81 82  1  0  0  0  0
 82 83  2  0  0  0  0
 82102  1  0  0  0  0
 83113  1  0  0  0  0
 83 78  1  0  0  0  0
 84 85  1  0  0  0  0
 85 86  2  0  0  0  0
 86 87  1  0  0  0  0
 87 76  1  0  0  0  0
 87 81  1  0  0  0  0
 88 89  2  0  0  0  0
 88 95  1  0  0  0  0
 88 84  1  0  0  0  0
 89 90  1  0  0  0  0
 90 77  1  0  0  0  0
 90 91  1  0  0  0  0
 91 85  1  0  0  0  0
 91 92  2  0  0  0  0
 92 93  1  0  0  0  0
 92105  1  0  0  0  0
 93125  1  0  0  0  0
 93 94  2  0  0  0  0
 94 86  1  0  0  0  0
 94106  1  0  0  0  0
 95 96  2  0  0  0  0
 96 97  1  0  0  0  0
 96103  1  0  0  0  0
 97119  1  0  0  0  0
 97 98  2  0  0  0  0
 98 89  1  0  0  0  0
 98104  1  0  0  0  0
 99111  1  0  0  0  0
 99 95  1  0  0  0  0
100112  1  0  0  0  0
107108  1  0  0  0  0
107133  1  0  0  0  0
107134  1  0  0  0  0
108135  1  0  0  0  0
108136  1  0  0  0  0
108137  1  0  0  0  0
109110  1  0  0  0  0
109146  1  0  0  0  0
109147  1  0  0  0  0
110148  1  0  0  0  0
110149  1  0  0  0  0
110150  1  0  0  0  0
111141  1  0  0  0  0
111142  1  0  0  0  0
111143  1  0  0  0  0
112138  1  0  0  0  0
112139  1  0  0  0  0
112140  1  0  0  0  0
113114  1  0  0  0  0
113115  1  0  0  0  0
113116  1  0  0  0  0
113117  1  0  0  0  0
113118  1  0  0  0  0
119120  1  0  0  0  0
119121  1  0  0  0  0
119122  1  0  0  0  0
119123  1  0  0  0  0
119124  1  0  0  0  0
125126  1  0  0  0  0
125127  1  0  0  0  0
125128  1  0  0  0  0
125129  1  0  0  0  0
125130  1  0  0  0  0
M  END
