energy: -106.945974846969 gnorm: 0.000201651385 xtb: 6.7.1 (edcfbbe)_energy: -106.945974846969 gnorm: 0.000201651385 xtb: 6.7.1 (edcfbbe)
 OpenBabel03042511593D

116124  0  0  0  0  0  0  0  0999 V2000
   -2.5729    2.4710   -2.0927 C   0  0  0  0  0  0  0  0  0  0  0  0
   -2.2950    1.3183   -1.3916 C   0  0  0  0  0  0  0  0  0  0  0  0
   -1.2599    1.3095   -0.4283 C   0  0  0  0  0  0  0  0  0  0  0  0
   -0.3457    2.4142   -0.4094 C   0  0  0  0  0  0  0  0  0  0  0  0
   -0.6707    3.5863   -1.1256 C   0  0  0  0  0  0  0  0  0  0  0  0
   -1.7938    3.6279   -1.9170 C   0  0  0  0  0  0  0  0  0  0  0  0
   -0.9964    0.2501    0.4960 C   0  0  0  0  0  0  0  0  0  0  0  0
    0.3115    0.1601    0.9943 C   0  0  0  0  0  0  0  0  0  0  0  0
    1.2119    1.2530    0.8176 C   0  0  0  0  0  0  0  0  0  0  0  0
    0.8291    2.3804    0.2237 N   0  0  0  0  0  0  0  0  0  0  0  0
   -1.9259   -0.7317    0.9547 C   0  0  0  0  0  0  0  0  0  0  0  0
   -1.3743   -1.9346    1.5028 C   0  0  0  0  0  0  0  0  0  0  0  0
   -0.0825   -2.0689    1.8121 N   0  0  0  0  0  0  0  0  0  0  0  0
    0.7279   -1.0224    1.6765 C   0  0  0  0  0  0  0  0  0  0  0  0
    2.0533   -1.0916    2.1505 C   0  0  0  0  0  0  0  0  0  0  0  0
    2.9176   -0.0140    1.9931 C   0  0  0  0  0  0  0  0  0  0  0  0
    2.5141    1.1494    1.3490 C   0  0  0  0  0  0  0  0  0  0  0  0
   -3.3355   -0.5594    0.9581 C   0  0  0  0  0  0  0  0  0  0  0  0
   -4.1401   -1.6494    1.2226 C   0  0  0  0  0  0  0  0  0  0  0  0
   -3.5828   -2.8897    1.5827 C   0  0  0  0  0  0  0  0  0  0  0  0
   -2.2287   -3.0283    1.7653 C   0  0  0  0  0  0  0  0  0  0  0  0
   -3.7862    0.6998    0.7785 O   0  0  0  0  0  0  0  0  0  0  0  0
   -3.0421    0.1974   -1.6871 O   0  0  0  0  0  0  0  0  0  0  0  0
   -2.1113    4.8872   -2.6384 C   0  0  0  0  0  0  0  0  0  0  0  0
   -4.5313   -4.0076    1.8242 C   0  0  0  0  0  0  0  0  0  0  0  0
   -0.0080    4.4347   -1.0656 H   0  0  0  0  0  0  0  0  0  0  0  0
   -3.3884    2.4719   -2.7978 H   0  0  0  0  0  0  0  0  0  0  0  0
    3.1843    1.9856    1.2392 H   0  0  0  0  0  0  0  0  0  0  0  0
    2.3920   -1.9869    2.6472 H   0  0  0  0  0  0  0  0  0  0  0  0
   -1.7954   -3.9413    2.1361 H   0  0  0  0  0  0  0  0  0  0  0  0
   -5.2153   -1.5878    1.1792 H   0  0  0  0  0  0  0  0  0  0  0  0
   -1.4422    5.8886   -2.5859 O   0  0  0  0  0  0  0  0  0  0  0  0
   -3.2376    4.7947   -3.3605 O   0  0  0  0  0  0  0  0  0  0  0  0
   -3.6097    5.9636   -4.0750 C   0  0  0  0  0  0  0  0  0  0  0  0
    4.2959   -0.1528    2.5415 C   0  0  0  0  0  0  0  0  0  0  0  0
    4.7063   -1.1403    3.0981 O   0  0  0  0  0  0  0  0  0  0  0  0
    5.0367    0.9450    2.3495 O   0  0  0  0  0  0  0  0  0  0  0  0
    6.3654    0.8897    2.8469 C   0  0  0  0  0  0  0  0  0  0  0  0
   -5.7300   -3.9136    1.7148 O   0  0  0  0  0  0  0  0  0  0  0  0
   -3.9124   -5.1407    2.1748 O   0  0  0  0  0  0  0  0  0  0  0  0
   -4.7550   -6.2552    2.4256 C   0  0  0  0  0  0  0  0  0  0  0  0
   -5.1743    0.9157    0.6767 C   0  0  0  0  0  0  0  0  0  0  0  0
   -2.3224   -0.8755   -2.2578 C   0  0  0  0  0  0  0  0  0  0  0  0
   -4.1003   -7.0703    2.7225 H   0  0  0  0  0  0  0  0  0  0  0  0
   -5.3134   -6.5194    1.5250 H   0  0  0  0  0  0  0  0  0  0  0  0
   -5.4655   -6.0225    3.2217 H   0  0  0  0  0  0  0  0  0  0  0  0
    6.8155    1.8523    2.6186 H   0  0  0  0  0  0  0  0  0  0  0  0
    6.9181    0.0819    2.3629 H   0  0  0  0  0  0  0  0  0  0  0  0
    6.3600    0.7130    3.9244 H   0  0  0  0  0  0  0  0  0  0  0  0
   -3.0415   -1.6825   -2.3868 H   0  0  0  0  0  0  0  0  0  0  0  0
   -1.5063   -1.2217   -1.6167 H   0  0  0  0  0  0  0  0  0  0  0  0
   -1.9125   -0.5915   -3.2336 H   0  0  0  0  0  0  0  0  0  0  0  0
   -5.2894    1.9838    0.5005 H   0  0  0  0  0  0  0  0  0  0  0  0
   -5.6915    0.6397    1.6007 H   0  0  0  0  0  0  0  0  0  0  0  0
   -5.5966    0.3604   -0.1647 H   0  0  0  0  0  0  0  0  0  0  0  0
   -4.5219    5.7153   -4.6113 H   0  0  0  0  0  0  0  0  0  0  0  0
   -2.8191    6.2501   -4.7716 H   0  0  0  0  0  0  0  0  0  0  0  0
   -3.7830    6.7912   -3.3841 H   0  0  0  0  0  0  0  0  0  0  0  0
   -2.5729    2.4710    5.9073 C   0  0  0  0  0  0  0  0  0  0  0  0
   -2.2950    1.3183    6.6084 C   0  0  0  0  0  0  0  0  0  0  0  0
   -1.2599    1.3095    7.5717 C   0  0  0  0  0  0  0  0  0  0  0  0
   -0.3457    2.4142    7.5906 C   0  0  0  0  0  0  0  0  0  0  0  0
   -0.6707    3.5863    6.8744 C   0  0  0  0  0  0  0  0  0  0  0  0
   -1.7938    3.6279    6.0830 C   0  0  0  0  0  0  0  0  0  0  0  0
   -0.9964    0.2501    8.4960 C   0  0  0  0  0  0  0  0  0  0  0  0
    0.3115    0.1601    8.9943 C   0  0  0  0  0  0  0  0  0  0  0  0
    1.2119    1.2530    8.8176 C   0  0  0  0  0  0  0  0  0  0  0  0
    0.8291    2.3804    8.2237 N   0  0  0  0  0  0  0  0  0  0  0  0
   -1.9259   -0.7317    8.9547 C   0  0  0  0  0  0  0  0  0  0  0  0
   -1.3743   -1.9346    9.5028 C   0  0  0  0  0  0  0  0  0  0  0  0
   -0.0825   -2.0689    9.8121 N   0  0  0  0  0  0  0  0  0  0  0  0
    0.7279   -1.0224    9.6765 C   0  0  0  0  0  0  0  0  0  0  0  0
    2.0533   -1.0916   10.1505 C   0  0  0  0  0  0  0  0  0  0  0  0
    2.9176   -0.0140    9.9931 C   0  0  0  0  0  0  0  0  0  0  0  0
    2.5141    1.1494    9.3490 C   0  0  0  0  0  0  0  0  0  0  0  0
   -3.3355   -0.5594    8.9581 C   0  0  0  0  0  0  0  0  0  0  0  0
   -4.1401   -1.6494    9.2226 C   0  0  0  0  0  0  0  0  0  0  0  0
   -3.5828   -2.8897    9.5827 C   0  0  0  0  0  0  0  0  0  0  0  0
   -2.2287   -3.0283    9.7653 C   0  0  0  0  0  0  0  0  0  0  0  0
   -3.7862    0.6998    8.7785 O   0  0  0  0  0  0  0  0  0  0  0  0
   -3.0421    0.1974    6.3129 O   0  0  0  0  0  0  0  0  0  0  0  0
   -2.1113    4.8872    5.3616 C   0  0  0  0  0  0  0  0  0  0  0  0
   -4.5313   -4.0076    9.8242 C   0  0  0  0  0  0  0  0  0  0  0  0
   -0.0080    4.4347    6.9344 H   0  0  0  0  0  0  0  0  0  0  0  0
   -3.3884    2.4719    5.2022 H   0  0  0  0  0  0  0  0  0  0  0  0
    3.1843    1.9856    9.2392 H   0  0  0  0  0  0  0  0  0  0  0  0
    2.3920   -1.9869   10.6472 H   0  0  0  0  0  0  0  0  0  0  0  0
   -1.7954   -3.9413   10.1361 H   0  0  0  0  0  0  0  0  0  0  0  0
   -5.2153   -1.5878    9.1792 H   0  0  0  0  0  0  0  0  0  0  0  0
   -1.4422    5.8886    5.4141 O   0  0  0  0  0  0  0  0  0  0  0  0
   -3.2376    4.7947    4.6395 O   0  0  0  0  0  0  0  0  0  0  0  0
   -3.6097    5.9636    3.9250 C   0  0  0  0  0  0  0  0  0  0  0  0
    4.2959   -0.1528   10.5415 C   0  0  0  0  0  0  0  0  0  0  0  0
    4.7063   -1.1403   11.0981 O   0  0  0  0  0  0  0  0  0  0  0  0
    5.0367    0.9450   10.3495 O   0  0  0  0  0  0  0  0  0  0  0  0
    6.3654    0.8897   10.8469 C   0  0  0  0  0  0  0  0  0  0  0  0
   -5.7300   -3.9136    9.7148 O   0  0  0  0  0  0  0  0  0  0  0  0
   -3.9124   -5.1407   10.1748 O   0  0  0  0  0  0  0  0  0  0  0  0
   -4.7550   -6.2552   10.4256 C   0  0  0  0  0  0  0  0  0  0  0  0
   -5.1743    0.9157    8.6767 C   0  0  0  0  0  0  0  0  0  0  0  0
   -2.3224   -0.8755    5.7422 C   0  0  0  0  0  0  0  0  0  0  0  0
   -4.1003   -7.0703   10.7225 H   0  0  0  0  0  0  0  0  0  0  0  0
   -5.3134   -6.5194    9.5250 H   0  0  0  0  0  0  0  0  0  0  0  0
   -5.4655   -6.0225   11.2217 H   0  0  0  0  0  0  0  0  0  0  0  0
    6.8155    1.8523   10.6186 H   0  0  0  0  0  0  0  0  0  0  0  0
    6.9181    0.0819   10.3629 H   0  0  0  0  0  0  0  0  0  0  0  0
    6.3600    0.7130   11.9244 H   0  0  0  0  0  0  0  0  0  0  0  0
   -3.0415   -1.6825    5.6132 H   0  0  0  0  0  0  0  0  0  0  0  0
   -1.5063   -1.2217    6.3833 H   0  0  0  0  0  0  0  0  0  0  0  0
   -1.9125   -0.5915    4.7664 H   0  0  0  0  0  0  0  0  0  0  0  0
   -5.2894    1.9838    8.5005 H   0  0  0  0  0  0  0  0  0  0  0  0
   -5.6915    0.6397    9.6007 H   0  0  0  0  0  0  0  0  0  0  0  0
   -5.5966    0.3604    7.8353 H   0  0  0  0  0  0  0  0  0  0  0  0
   -4.5219    5.7153    3.3887 H   0  0  0  0  0  0  0  0  0  0  0  0
   -2.8191    6.2501    3.2284 H   0  0  0  0  0  0  0  0  0  0  0  0
   -3.7830    6.7912    4.6159 H   0  0  0  0  0  0  0  0  0  0  0  0
  1  6  2  0  0  0  0
  1  2  1  0  0  0  0
  2  3  2  0  0  0  0
  3  7  1  0  0  0  0
  4  3  1  0  0  0  0
  4 10  1  0  0  0  0
  5  4  2  0  0  0  0
  6  5  1  0  0  0  0
  7 11  2  0  0  0  0
  7  8  1  0  0  0  0
  8 14  1  0  0  0  0
  9  8  2  0  0  0  0
  9 17  1  0  0  0  0
 10  9  1  0  0  0  0
 11 12  1  0  0  0  0
 12 21  1  0  0  0  0
 12 13  2  0  0  0  0
 14 13  1  0  0  0  0
 14 15  2  0  0  0  0
 15 29  1  0  0  0  0
 16 15  1  0  0  0  0
 16 35  1  0  0  0  0
 17 16  2  0  0  0  0
 18 11  1  0  0  0  0
 18 19  2  0  0  0  0
 19 20  1  0  0  0  0
 20 21  2  0  0  0  0
 20 25  1  0  0  0  0
 21 30  1  0  0  0  0
 22 18  1  0  0  0  0
 23  2  1  0  0  0  0
 24  6  1  0  0  0  0
 25 40  1  0  0  0  0
 26  5  1  0  0  0  0
 27  1  1  0  0  0  0
 28 17  1  0  0  0  0
 31 19  1  0  0  0  0
 32 24  2  0  0  0  0
 33 34  1  0  0  0  0
 33 24  1  0  0  0  0
 34 57  1  0  0  0  0
 34 58  1  0  0  0  0
 35 36  2  0  0  0  0
 37 35  1  0  0  0  0
 38 37  1  0  0  0  0
 39 25  2  0  0  0  0
 41 44  1  0  0  0  0
 41 40  1  0  0  0  0
 42 54  1  0  0  0  0
 42 22  1  0  0  0  0
 43 23  1  0  0  0  0
 45 41  1  0  0  0  0
 46 41  1  0  0  0  0
 47 38  1  0  0  0  0
 48 38  1  0  0  0  0
 49 38  1  0  0  0  0
 50 43  1  0  0  0  0
 51 43  1  0  0  0  0
 52 43  1  0  0  0  0
 53 42  1  0  0  0  0
 55 42  1  0  0  0  0
 56 34  1  0  0  0  0
 59 64  2  0  0  0  0
 59 60  1  0  0  0  0
 60 61  2  0  0  0  0
 61 65  1  0  0  0  0
 62 61  1  0  0  0  0
 62 68  1  0  0  0  0
 63 62  2  0  0  0  0
 64 63  1  0  0  0  0
 65 69  2  0  0  0  0
 65 66  1  0  0  0  0
 66 72  1  0  0  0  0
 67 66  2  0  0  0  0
 67 75  1  0  0  0  0
 68 67  1  0  0  0  0
 69 70  1  0  0  0  0
 70 79  1  0  0  0  0
 70 71  2  0  0  0  0
 72 71  1  0  0  0  0
 72 73  2  0  0  0  0
 73 87  1  0  0  0  0
 74 73  1  0  0  0  0
 74 93  1  0  0  0  0
 75 74  2  0  0  0  0
 76 69  1  0  0  0  0
 76 77  2  0  0  0  0
 77 78  1  0  0  0  0
 78 79  2  0  0  0  0
 78 83  1  0  0  0  0
 79 88  1  0  0  0  0
 80 76  1  0  0  0  0
 81 60  1  0  0  0  0
 82 64  1  0  0  0  0
 83 98  1  0  0  0  0
 84 63  1  0  0  0  0
 85 59  1  0  0  0  0
 86 75  1  0  0  0  0
 89 77  1  0  0  0  0
 90 82  2  0  0  0  0
 91 92  1  0  0  0  0
 91 82  1  0  0  0  0
 92115  1  0  0  0  0
 92116  1  0  0  0  0
 93 94  2  0  0  0  0
 95 93  1  0  0  0  0
 96 95  1  0  0  0  0
 97 83  2  0  0  0  0
 99102  1  0  0  0  0
 99 98  1  0  0  0  0
100112  1  0  0  0  0
100 80  1  0  0  0  0
101 81  1  0  0  0  0
103 99  1  0  0  0  0
104 99  1  0  0  0  0
105 96  1  0  0  0  0
106 96  1  0  0  0  0
107 96  1  0  0  0  0
108101  1  0  0  0  0
109101  1  0  0  0  0
110101  1  0  0  0  0
111100  1  0  0  0  0
113100  1  0  0  0  0
114 92  1  0  0  0  0
M  END
