 energy: -104.193435346090 gnorm: 0.000141872450 xtb: 6.7.1 (edcfbbe)
          03042511283D

 76 80  0     0  0            999 V2000
   -2.8335    1.5628   -2.4401 C   0  0  0  0  0  0  0  0  0  0  0  0
   -2.5131    0.5759   -1.5201 C   0  0  0  0  0  0  0  0  0  0  0  0
   -1.3821    0.7491   -0.6892 C   0  0  0  0  0  0  0  0  0  0  0  0
   -0.4617    1.7980   -1.0454 C   0  0  0  0  0  0  0  0  0  0  0  0
   -0.8453    2.7931   -1.9802 C   0  0  0  0  0  0  0  0  0  0  0  0
   -2.0390    2.7082   -2.6498 C   0  0  0  0  0  0  0  0  0  0  0  0
   -1.0112   -0.1018    0.3927 C   0  0  0  0  0  0  0  0  0  0  0  0
    0.3535   -0.1058    0.7313 C   0  0  0  0  0  0  0  0  0  0  0  0
    1.2276    0.8795    0.2040 C   0  0  0  0  0  0  0  0  0  0  0  0
    0.7819    1.8519   -0.5916 N   0  0  0  0  0  0  0  0  0  0  0  0
   -1.8515   -0.9492    1.1734 C   0  0  0  0  0  0  0  0  0  0  0  0
   -1.2092   -1.9967    1.9243 C   0  0  0  0  0  0  0  0  0  0  0  0
    0.1040   -2.0593    2.1017 N   0  0  0  0  0  0  0  0  0  0  0  0
    0.8755   -1.0959    1.6032 C   0  0  0  0  0  0  0  0  0  0  0  0
    2.2571   -1.0982    1.9004 C   0  0  0  0  0  0  0  0  0  0  0  0
    3.1154   -0.1186    1.4148 C   0  0  0  0  0  0  0  0  0  0  0  0
    2.5846    0.8680    0.5850 C   0  0  0  0  0  0  0  0  0  0  0  0
   -3.2384   -0.7719    1.3745 C   0  0  0  0  0  0  0  0  0  0  0  0
   -3.9608   -1.7485    2.0498 C   0  0  0  0  0  0  0  0  0  0  0  0
   -3.3626   -2.8850    2.6199 C   0  0  0  0  0  0  0  0  0  0  0  0
   -1.9908   -2.9756    2.5824 C   0  0  0  0  0  0  0  0  0  0  0  0
   -3.7710    0.3869    0.9384 O   0  0  0  0  0  0  0  0  0  0  0  0
   -3.1837   -0.5872   -1.3974 O   0  0  0  0  0  0  0  0  0  0  0  0
   -2.5132    3.7548   -3.6405 C   0  0  0  0  0  0  0  0  0  0  0  0
   -4.1760   -3.9606    3.3179 C   0  0  0  0  0  0  0  0  0  0  0  0
    4.5946   -0.0831    1.7573 C   0  0  0  0  0  0  0  0  0  0  0  0
   -5.6855   -3.7259    3.2199 C   0  0  0  0  0  0  0  0  0  0  0  0
   -3.8554   -5.3148    2.6690 C   0  0  0  0  0  0  0  0  0  0  0  0
   -3.7828   -3.9877    4.8020 C   0  0  0  0  0  0  0  0  0  0  0  0
    5.4055   -0.1573    0.4556 C   0  0  0  0  0  0  0  0  0  0  0  0
    4.8940    1.2339    2.4881 C   0  0  0  0  0  0  0  0  0  0  0  0
    5.0127   -1.2469    2.6583 C   0  0  0  0  0  0  0  0  0  0  0  0
   -3.8872    4.2727   -3.1904 C   0  0  0  0  0  0  0  0  0  0  0  0
   -2.6219    3.1178   -5.0335 C   0  0  0  0  0  0  0  0  0  0  0  0
   -1.5536    4.9435   -3.7246 C   0  0  0  0  0  0  0  0  0  0  0  0
   -0.1312    3.5778   -2.1578 H   0  0  0  0  0  0  0  0  0  0  0  0
   -3.7289    1.4503   -3.0288 H   0  0  0  0  0  0  0  0  0  0  0  0
    3.1987    1.6673    0.2002 H   0  0  0  0  0  0  0  0  0  0  0  0
    2.6095   -1.9024    2.5252 H   0  0  0  0  0  0  0  0  0  0  0  0
   -1.4507   -3.7599    3.0853 H   0  0  0  0  0  0  0  0  0  0  0  0
   -5.0255   -1.6242    2.1453 H   0  0  0  0  0  0  0  0  0  0  0  0
   -5.1296    0.6715    1.1952 C   0  0  0  0  0  0  0  0  0  0  0  0
   -4.2590   -0.8646   -2.2683 C   0  0  0  0  0  0  0  0  0  0  0  0
   -1.4331    5.4191   -2.7545 H   0  0  0  0  0  0  0  0  0  0  0  0
   -1.9557    5.6825   -4.4128 H   0  0  0  0  0  0  0  0  0  0  0  0
   -0.5798    4.6373   -4.0979 H   0  0  0  0  0  0  0  0  0  0  0  0
   -3.3604    2.3210   -5.0591 H   0  0  0  0  0  0  0  0  0  0  0  0
   -1.6618    2.7072   -5.3378 H   0  0  0  0  0  0  0  0  0  0  0  0
   -2.9171    3.8717   -5.7583 H   0  0  0  0  0  0  0  0  0  0  0  0
   -4.6356    3.4850   -3.1809 H   0  0  0  0  0  0  0  0  0  0  0  0
   -4.2268    5.0482   -3.8718 H   0  0  0  0  0  0  0  0  0  0  0  0
   -3.8218    4.6988   -2.1917 H   0  0  0  0  0  0  0  0  0  0  0  0
    5.1996    0.6862   -0.1972 H   0  0  0  0  0  0  0  0  0  0  0  0
    5.1765   -1.0739   -0.0835 H   0  0  0  0  0  0  0  0  0  0  0  0
    6.4673   -0.1533    0.6863 H   0  0  0  0  0  0  0  0  0  0  0  0
    4.8373   -2.2045    2.1739 H   0  0  0  0  0  0  0  0  0  0  0  0
    4.4855   -1.2203    3.6091 H   0  0  0  0  0  0  0  0  0  0  0  0
    6.0766   -1.1718    2.8675 H   0  0  0  0  0  0  0  0  0  0  0  0
    4.6768    2.0983    1.8672 H   0  0  0  0  0  0  0  0  0  0  0  0
    5.9455    1.2696    2.7594 H   0  0  0  0  0  0  0  0  0  0  0  0
    4.3033    1.3066    3.3987 H   0  0  0  0  0  0  0  0  0  0  0  0
   -3.9735   -3.0217    5.2646 H   0  0  0  0  0  0  0  0  0  0  0  0
   -2.7316   -4.2279    4.9306 H   0  0  0  0  0  0  0  0  0  0  0  0
   -4.3695   -4.7392    5.3235 H   0  0  0  0  0  0  0  0  0  0  0  0
   -4.1127   -5.3002    1.6121 H   0  0  0  0  0  0  0  0  0  0  0  0
   -4.4325   -6.0992    3.1511 H   0  0  0  0  0  0  0  0  0  0  0  0
   -2.8025   -5.5631    2.7620 H   0  0  0  0  0  0  0  0  0  0  0  0
   -6.0130   -3.6846    2.1834 H   0  0  0  0  0  0  0  0  0  0  0  0
   -5.9813   -2.8132    3.7324 H   0  0  0  0  0  0  0  0  0  0  0  0
   -6.2057   -4.5519    3.6980 H   0  0  0  0  0  0  0  0  0  0  0  0
   -4.5906   -1.8687   -2.0090 H   0  0  0  0  0  0  0  0  0  0  0  0
   -3.9405   -0.8510   -3.3143 H   0  0  0  0  0  0  0  0  0  0  0  0
   -5.0851   -0.1620   -2.1247 H   0  0  0  0  0  0  0  0  0  0  0  0
   -5.2966    1.6701    0.7946 H   0  0  0  0  0  0  0  0  0  0  0  0
   -5.3423    0.6749    2.2677 H   0  0  0  0  0  0  0  0  0  0  0  0
   -5.7921   -0.0374    0.6902 H   0  0  0  0  0  0  0  0  0  0  0  0
  1  2  2  0  0  0  0
  1 37  1  0  0  0  0
  2  3  1  0  0  0  0
  2 23  1  0  0  0  0
  3  4  2  0  0  0  0
  3  7  1  0  0  0  0
  4  5  1  0  0  0  0
  5  6  2  0  0  0  0
  5 36  1  0  0  0  0
  6  1  1  0  0  0  0
  6 24  1  0  0  0  0
  7 11  2  0  0  0  0
  8  7  1  0  0  0  0
  8  9  1  0  0  0  0
  9 10  2  0  0  0  0
 10  4  1  0  0  0  0
 11 12  1  0  0  0  0
 11 18  1  0  0  0  0
 12 13  2  0  0  0  0
 13 14  1  0  0  0  0
 14  8  1  0  0  0  0
 14 15  2  0  0  0  0
 15 16  1  0  0  0  0
 15 39  1  0  0  0  0
 16 17  2  0  0  0  0
 16 26  1  0  0  0  0
 17  9  1  0  0  0  0
 17 38  1  0  0  0  0
 18 19  2  0  0  0  0
 19 20  1  0  0  0  0
 19 41  1  0  0  0  0
 20 21  2  0  0  0  0
 20 25  1  0  0  0  0
 21 12  1  0  0  0  0
 21 40  1  0  0  0  0
 22 42  1  0  0  0  0
 22 18  1  0  0  0  0
 23 43  1  0  0  0  0
 24 33  1  0  0  0  0
 24 34  1  0  0  0  0
 24 35  1  0  0  0  0
 25 27  1  0  0  0  0
 25 28  1  0  0  0  0
 25 29  1  0  0  0  0
 26 30  1  0  0  0  0
 26 31  1  0  0  0  0
 26 32  1  0  0  0  0
 27 68  1  0  0  0  0
 27 69  1  0  0  0  0
 27 70  1  0  0  0  0
 28 65  1  0  0  0  0
 28 66  1  0  0  0  0
 28 67  1  0  0  0  0
 29 62  1  0  0  0  0
 29 63  1  0  0  0  0
 29 64  1  0  0  0  0
 30 53  1  0  0  0  0
 30 54  1  0  0  0  0
 30 55  1  0  0  0  0
 31 59  1  0  0  0  0
 31 60  1  0  0  0  0
 31 61  1  0  0  0  0
 32 56  1  0  0  0  0
 32 57  1  0  0  0  0
 32 58  1  0  0  0  0
 33 50  1  0  0  0  0
 33 51  1  0  0  0  0
 33 52  1  0  0  0  0
 34 47  1  0  0  0  0
 34 48  1  0  0  0  0
 34 49  1  0  0  0  0
 35 44  1  0  0  0  0
 35 45  1  0  0  0  0
 35 46  1  0  0  0  0
 42 74  1  0  0  0  0
 42 75  1  0  0  0  0
 42 76  1  0  0  0  0
 43 71  1  0  0  0  0
 43 72  1  0  0  0  0
 43 73  1  0  0  0  0
M  CHG  1   1   1
M  END
