 energy: -45.800816296310 gnorm: 0.000925553048 xtb: 6.7.1 (edcfbbe)
          12102414213D

222248  0     0  0            999 V2000
    0.3868    3.5234    2.1249 C   0  0  0  0  0  0  0  0  0  0  0  0
    1.0092    2.2573    2.3535 C   0  0  0  0  0  0  0  0  0  0  0  0
    2.3864    1.9297    2.3350 C   0  0  0  0  0  0  0  0  0  0  0  0
    3.2571    3.0382    2.3541 C   0  0  0  0  0  0  0  0  0  0  0  0
    2.6896    4.3269    2.1121 C   0  0  0  0  0  0  0  0  0  0  0  0
    1.3397    4.5724    1.9380 C   0  0  0  0  0  0  0  0  0  0  0  0
    2.8386    0.5586    2.5289 C   0  0  0  0  0  0  0  0  0  0  0  0
    4.1433    0.4945    3.0436 C   0  0  0  0  0  0  0  0  0  0  0  0
    4.9673    1.6664    3.0729 C   0  0  0  0  0  0  0  0  0  0  0  0
    4.5563    2.8967    2.6608 N   0  0  0  0  0  0  0  0  0  0  0  0
    2.1445   -0.7175    2.3969 C   0  0  0  0  0  0  0  0  0  0  0  0
    2.6648   -1.8531    3.0746 C   0  0  0  0  0  0  0  0  0  0  0  0
    3.8726   -1.8608    3.6571 N   0  0  0  0  0  0  0  0  0  0  0  0
    4.6207   -0.7373    3.5716 C   0  0  0  0  0  0  0  0  0  0  0  0
    5.9204   -0.7755    4.0767 C   0  0  0  0  0  0  0  0  0  0  0  0
    6.7426    0.3312    4.0535 C   0  0  0  0  0  0  0  0  0  0  0  0
    6.2692    1.5372    3.5663 C   0  0  0  0  0  0  0  0  0  0  0  0
    0.9847   -1.0276    1.5508 C   0  0  0  0  0  0  0  0  0  0  0  0
    0.1151   -2.1892    1.7285 C   0  0  0  0  0  0  0  0  0  0  0  0
    0.6091   -3.1731    2.6232 C   0  0  0  0  0  0  0  0  0  0  0  0
    1.8632   -3.0276    3.1822 C   0  0  0  0  0  0  0  0  0  0  0  0
    0.2360    1.2131    2.6456 O   0  0  0  0  0  0  0  0  0  0  0  0
    0.8983    5.9053    1.4622 C   0  0  0  0  0  0  0  0  0  0  0  0
   -0.3274   -4.1996    3.1618 C   0  0  0  0  0  0  0  0  0  0  0  0
    8.1210    0.2042    4.5783 C   0  0  0  0  0  0  0  0  0  0  0  0
   -1.2633   -2.1383    1.1748 C   0  0  0  0  0  0  0  0  0  0  0  0
   -1.9704   -0.9007    1.2825 C   0  0  0  0  0  0  0  0  0  0  0  0
   -3.1926   -0.5258    0.6779 C   0  0  0  0  0  0  0  0  0  0  0  0
   -3.9182   -1.5926    0.1096 C   0  0  0  0  0  0  0  0  0  0  0  0
   -3.2827   -2.8689    0.0340 C   0  0  0  0  0  0  0  0  0  0  0  0
   -2.0129   -3.1460    0.4994 C   0  0  0  0  0  0  0  0  0  0  0  0
   -3.7414    0.8115    0.8489 C   0  0  0  0  0  0  0  0  0  0  0  0
   -5.1253    0.8597    0.6186 C   0  0  0  0  0  0  0  0  0  0  0  0
   -5.7999   -0.2672    0.0486 C   0  0  0  0  0  0  0  0  0  0  0  0
   -5.1978   -1.4453   -0.2626 N   0  0  0  0  0  0  0  0  0  0  0  0
   -3.1304    2.0521    1.3069 C   0  0  0  0  0  0  0  0  0  0  0  0
   -3.9673    3.1076    1.7490 C   0  0  0  0  0  0  0  0  0  0  0  0
   -5.3008    3.0933    1.6012 N   0  0  0  0  0  0  0  0  0  0  0  0
   -5.8568    2.0244    0.9864 C   0  0  0  0  0  0  0  0  0  0  0  0
   -7.2324    2.0455    0.7405 C   0  0  0  0  0  0  0  0  0  0  0  0
   -7.8816    0.9768    0.1582 C   0  0  0  0  0  0  0  0  0  0  0  0
   -7.1728   -0.1608   -0.1795 C   0  0  0  0  0  0  0  0  0  0  0  0
   -1.7118    2.4304    1.2456 C   0  0  0  0  0  0  0  0  0  0  0  0
   -1.0944    3.5313    1.9871 C   0  0  0  0  0  0  0  0  0  0  0  0
   -2.0250    4.4625    2.5202 C   0  0  0  0  0  0  0  0  0  0  0  0
   -3.3749    4.2596    2.3381 C   0  0  0  0  0  0  0  0  0  0  0  0
   -1.4749    0.0378    2.0876 O   0  0  0  0  0  0  0  0  0  0  0  0
   -1.4338   -4.4894    0.2692 C   0  0  0  0  0  0  0  0  0  0  0  0
   -1.6137    5.6953    3.2330 C   0  0  0  0  0  0  0  0  0  0  0  0
   -9.3399    1.0480   -0.0807 C   0  0  0  0  0  0  0  0  0  0  0  0
   -0.3641    0.7131    1.3964 B   0  0  0  0  0  0  0  0  0  0  0  0
    8.9602    1.0429    4.3182 O   0  0  0  0  0  0  0  0  0  0  0  0
    8.3567   -0.9025    5.3438 O   0  0  0  0  0  0  0  0  0  0  0  0
    9.6536   -0.8633    5.8400 C   0  0  0  0  0  0  0  0  0  0  0  0
    0.0314   -5.5119    3.0629 O   0  0  0  0  0  0  0  0  0  0  0  0
   -1.0178   -6.2962    3.5313 C   0  0  0  0  0  0  0  0  0  0  0  0
   -1.3635   -3.8216    3.6769 O   0  0  0  0  0  0  0  0  0  0  0  0
   -2.1531   -5.4695    0.2826 O   0  0  0  0  0  0  0  0  0  0  0  0
   -0.0907   -4.5378    0.0270 O   0  0  0  0  0  0  0  0  0  0  0  0
    0.3170   -5.8629   -0.0672 C   0  0  0  0  0  0  0  0  0  0  0  0
   -9.9457    2.0623    0.2043 O   0  0  0  0  0  0  0  0  0  0  0  0
   -9.9247   -0.0614   -0.6189 O   0  0  0  0  0  0  0  0  0  0  0  0
  -11.2902    0.1584   -0.7584 C   0  0  0  0  0  0  0  0  0  0  0  0
   -2.3418    6.6688    3.1846 O   0  0  0  0  0  0  0  0  0  0  0  0
   -0.4310    5.6786    3.9126 O   0  0  0  0  0  0  0  0  0  0  0  0
   -0.1485    6.9573    4.3831 C   0  0  0  0  0  0  0  0  0  0  0  0
    1.4894    6.9077    1.8127 O   0  0  0  0  0  0  0  0  0  0  0  0
   -0.1680    5.9096    0.6065 O   0  0  0  0  0  0  0  0  0  0  0  0
   -0.5681    7.2167    0.3489 C   0  0  0  0  0  0  0  0  0  0  0  0
    0.5935   -0.1492    0.5755 N   0  0  0  0  0  0  0  0  0  0  0  0
    1.5177   -0.7240   -1.6140 C   0  0  0  0  0  0  0  0  0  0  0  0
    0.2750   -0.5729   -0.7632 C   0  0  0  0  0  0  0  0  0  0  0  0
   -0.8681    1.7509    0.4024 N   0  0  0  0  0  0  0  0  0  0  0  0
   -0.7714    2.7657   -1.8185 C   0  0  0  0  0  0  0  0  0  0  0  0
   -0.0194    2.4143   -0.5527 C   0  0  0  0  0  0  0  0  0  0  0  0
    1.3694   -5.8938   -0.3568 H   0  0  0  0  0  0  0  0  0  0  0  0
   -0.2995   -6.3724   -0.8124 H   0  0  0  0  0  0  0  0  0  0  0  0
    0.1820   -6.3335    0.9102 H   0  0  0  0  0  0  0  0  0  0  0  0
   -1.8764   -6.1553    2.8669 H   0  0  0  0  0  0  0  0  0  0  0  0
   -1.2732   -5.9647    4.5429 H   0  0  0  0  0  0  0  0  0  0  0  0
   -0.7102   -7.3441    3.5433 H   0  0  0  0  0  0  0  0  0  0  0  0
    9.8708   -1.8086    6.3421 H   0  0  0  0  0  0  0  0  0  0  0  0
    9.7255   -0.0356    6.5495 H   0  0  0  0  0  0  0  0  0  0  0  0
   10.3468   -0.7048    5.0096 H   0  0  0  0  0  0  0  0  0  0  0  0
    1.2835   -1.0481   -2.6295 H   0  0  0  0  0  0  0  0  0  0  0  0
    2.1934   -1.4606   -1.1773 H   0  0  0  0  0  0  0  0  0  0  0  0
    2.0709    0.2127   -1.6811 H   0  0  0  0  0  0  0  0  0  0  0  0
   -0.2499   -1.5308   -0.7156 H   0  0  0  0  0  0  0  0  0  0  0  0
   -0.4421    0.1233   -1.2036 H   0  0  0  0  0  0  0  0  0  0  0  0
   -0.1351    3.2695   -2.5481 H   0  0  0  0  0  0  0  0  0  0  0  0
   -1.6089    3.4278   -1.5944 H   0  0  0  0  0  0  0  0  0  0  0  0
   -1.1879    1.8779   -2.2943 H   0  0  0  0  0  0  0  0  0  0  0  0
    0.3738    3.3286   -0.1005 H   0  0  0  0  0  0  0  0  0  0  0  0
    0.8563    1.7929   -0.7530 H   0  0  0  0  0  0  0  0  0  0  0  0
    0.8640    6.9705    4.7929 H   0  0  0  0  0  0  0  0  0  0  0  0
   -0.8874    7.2199    5.1470 H   0  0  0  0  0  0  0  0  0  0  0  0
   -0.2064    7.6563    3.5447 H   0  0  0  0  0  0  0  0  0  0  0  0
  -11.7534   -0.7323   -1.1886 H   0  0  0  0  0  0  0  0  0  0  0  0
  -11.4427    1.0204   -1.4132 H   0  0  0  0  0  0  0  0  0  0  0  0
  -11.7141    0.3679    0.2275 H   0  0  0  0  0  0  0  0  0  0  0  0
   -1.0753    7.6037    1.2369 H   0  0  0  0  0  0  0  0  0  0  0  0
   -1.2553    7.2173   -0.4996 H   0  0  0  0  0  0  0  0  0  0  0  0
    0.3132    7.8238    0.1252 H   0  0  0  0  0  0  0  0  0  0  0  0
   -7.8049    2.9134    1.0155 H   0  0  0  0  0  0  0  0  0  0  0  0
   -7.6988   -0.9945   -0.6082 H   0  0  0  0  0  0  0  0  0  0  0  0
   -4.0399    5.0312    2.6825 H   0  0  0  0  0  0  0  0  0  0  0  0
   -3.8407   -3.6760   -0.4052 H   0  0  0  0  0  0  0  0  0  0  0  0
    2.2170   -3.7999    3.8403 H   0  0  0  0  0  0  0  0  0  0  0  0
    6.2897   -1.6915    4.5013 H   0  0  0  0  0  0  0  0  0  0  0  0
    6.9071    2.4034    3.6104 H   0  0  0  0  0  0  0  0  0  0  0  0
    3.3633    5.1623    2.0458 H   0  0  0  0  0  0  0  0  0  0  0  0
   -1.3735    3.1950    7.9436 C   0  0  0  0  0  0  0  0  0  0  0  0
   -0.2931    2.2552    8.0889 C   0  0  0  0  0  0  0  0  0  0  0  0
    1.0116    2.3296    7.5240 C   0  0  0  0  0  0  0  0  0  0  0  0
    1.3460    3.5739    6.9553 C   0  0  0  0  0  0  0  0  0  0  0  0
    0.3177    4.5477    6.8324 C   0  0  0  0  0  0  0  0  0  0  0  0
   -0.9878    4.3779    7.2408 C   0  0  0  0  0  0  0  0  0  0  0  0
    1.9844    1.2509    7.6249 C   0  0  0  0  0  0  0  0  0  0  0  0
    3.3046    1.6522    7.3752 C   0  0  0  0  0  0  0  0  0  0  0  0
    3.5562    2.9459    6.8255 C   0  0  0  0  0  0  0  0  0  0  0  0
    2.5925    3.8630    6.5566 N   0  0  0  0  0  0  0  0  0  0  0  0
    1.8249   -0.1502    7.9587 C   0  0  0  0  0  0  0  0  0  0  0  0
    2.9502   -0.9300    8.3202 C   0  0  0  0  0  0  0  0  0  0  0  0
    4.2083   -0.4719    8.2032 N   0  0  0  0  0  0  0  0  0  0  0  0
    4.3803    0.7625    7.6672 C   0  0  0  0  0  0  0  0  0  0  0  0
    5.6823    1.2014    7.4025 C   0  0  0  0  0  0  0  0  0  0  0  0
    5.9270    2.4403    6.8431 C   0  0  0  0  0  0  0  0  0  0  0  0
    4.8776    3.2888    6.5492 C   0  0  0  0  0  0  0  0  0  0  0  0
    0.6287   -0.9397    7.7039 C   0  0  0  0  0  0  0  0  0  0  0  0
    0.3652   -2.2779    8.1993 C   0  0  0  0  0  0  0  0  0  0  0  0
    1.5081   -2.9209    8.7448 C   0  0  0  0  0  0  0  0  0  0  0  0
    2.7309   -2.2774    8.7351 C   0  0  0  0  0  0  0  0  0  0  0  0
   -0.5277    1.1302    8.7765 O   0  0  0  0  0  0  0  0  0  0  0  0
   -1.9935    5.3733    6.7948 C   0  0  0  0  0  0  0  0  0  0  0  0
    1.4253   -4.2778    9.3317 C   0  0  0  0  0  0  0  0  0  0  0  0
    7.3034    2.8846    6.5289 C   0  0  0  0  0  0  0  0  0  0  0  0
   -1.0306   -2.7739    8.0459 C   0  0  0  0  0  0  0  0  0  0  0  0
   -2.0924   -1.8323    8.2942 C   0  0  0  0  0  0  0  0  0  0  0  0
   -3.4539   -1.9304    7.8963 C   0  0  0  0  0  0  0  0  0  0  0  0
   -3.8410   -3.1893    7.3939 C   0  0  0  0  0  0  0  0  0  0  0  0
   -2.8213   -4.1520    7.1418 C   0  0  0  0  0  0  0  0  0  0  0  0
   -1.4770   -3.9651    7.3885 C   0  0  0  0  0  0  0  0  0  0  0  0
   -4.4087   -0.8427    8.0702 C   0  0  0  0  0  0  0  0  0  0  0  0
   -5.7468   -1.2447    7.9592 C   0  0  0  0  0  0  0  0  0  0  0  0
   -6.0561   -2.5569    7.4842 C   0  0  0  0  0  0  0  0  0  0  0  0
   -5.1253   -3.4893    7.1534 N   0  0  0  0  0  0  0  0  0  0  0  0
   -4.2158    0.5737    8.3254 C   0  0  0  0  0  0  0  0  0  0  0  0
   -5.3010    1.3867    8.7359 C   0  0  0  0  0  0  0  0  0  0  0  0
   -6.5645    0.9302    8.7532 N   0  0  0  0  0  0  0  0  0  0  0  0
   -6.7857   -0.3260    8.2909 C   0  0  0  0  0  0  0  0  0  0  0  0
   -8.1079   -0.7460    8.1178 C   0  0  0  0  0  0  0  0  0  0  0  0
   -8.4131   -1.9983    7.6239 C   0  0  0  0  0  0  0  0  0  0  0  0
   -7.4006   -2.8881    7.3177 C   0  0  0  0  0  0  0  0  0  0  0  0
   -3.0549    1.3481    7.9018 C   0  0  0  0  0  0  0  0  0  0  0  0
   -2.7425    2.7184    8.2815 C   0  0  0  0  0  0  0  0  0  0  0  0
   -3.8418    3.4112    8.8514 C   0  0  0  0  0  0  0  0  0  0  0  0
   -5.0546    2.7675    9.0097 C   0  0  0  0  0  0  0  0  0  0  0  0
   -1.7916   -0.6696    8.8883 O   0  0  0  0  0  0  0  0  0  0  0  0
   -0.5260   -4.9423    6.8030 C   0  0  0  0  0  0  0  0  0  0  0  0
   -3.7277    4.8392    9.2303 C   0  0  0  0  0  0  0  0  0  0  0  0
   -9.8249   -2.3783    7.3980 C   0  0  0  0  0  0  0  0  0  0  0  0
   -1.2279    0.2193    7.8512 B   0  0  0  0  0  0  0  0  0  0  0  0
    7.4585    3.7971    5.7396 O   0  0  0  0  0  0  0  0  0  0  0  0
    8.3279    2.2343    7.1528 O   0  0  0  0  0  0  0  0  0  0  0  0
    9.5316    2.7746    6.7133 C   0  0  0  0  0  0  0  0  0  0  0  0
    2.5966   -4.9786    9.3846 O   0  0  0  0  0  0  0  0  0  0  0  0
    2.3627   -6.2150    9.9753 C   0  0  0  0  0  0  0  0  0  0  0  0
    0.3700   -4.7114    9.7501 O   0  0  0  0  0  0  0  0  0  0  0  0
   -0.9108   -6.0634    6.5314 O   0  0  0  0  0  0  0  0  0  0  0  0
    0.7372   -4.4972    6.5342 O   0  0  0  0  0  0  0  0  0  0  0  0
    1.5252   -5.5424    6.0660 C   0  0  0  0  0  0  0  0  0  0  0  0
  -10.7127   -1.5998    7.6864 O   0  0  0  0  0  0  0  0  0  0  0  0
  -10.0383   -3.6122    6.8538 O   0  0  0  0  0  0  0  0  0  0  0  0
  -11.4031   -3.8134    6.6839 C   0  0  0  0  0  0  0  0  0  0  0  0
   -4.6842    5.5773    9.0918 O   0  0  0  0  0  0  0  0  0  0  0  0
   -2.5210    5.2453    9.7238 O   0  0  0  0  0  0  0  0  0  0  0  0
   -2.5194    6.6239    9.8954 C   0  0  0  0  0  0  0  0  0  0  0  0
   -1.7557    6.5627    6.8827 O   0  0  0  0  0  0  0  0  0  0  0  0
   -3.1359    4.8580    6.2513 O   0  0  0  0  0  0  0  0  0  0  0  0
   -4.0088    5.8925    5.9385 C   0  0  0  0  0  0  0  0  0  0  0  0
   -0.3056   -0.4364    6.8434 N   0  0  0  0  0  0  0  0  0  0  0  0
   -0.1178   -0.7923    4.4854 C   0  0  0  0  0  0  0  0  0  0  0  0
   -0.8422   -1.1664    5.7362 C   0  0  0  0  0  0  0  0  0  0  0  0
   -2.2669    0.8362    6.9022 N   0  0  0  0  0  0  0  0  0  0  0  0
   -2.8276    1.1805    4.5225 C   0  0  0  0  0  0  0  0  0  0  0  0
   -1.9775    1.5869    5.7060 C   0  0  0  0  0  0  0  0  0  0  0  0
    2.5666   -5.2157    6.0361 H   0  0  0  0  0  0  0  0  0  0  0  0
    1.1879   -5.8252    5.0671 H   0  0  0  0  0  0  0  0  0  0  0  0
    1.4210   -6.3911    6.7460 H   0  0  0  0  0  0  0  0  0  0  0  0
    1.5784   -6.7307    9.4149 H   0  0  0  0  0  0  0  0  0  0  0  0
    2.0281   -6.0539   11.0032 H   0  0  0  0  0  0  0  0  0  0  0  0
    3.2849   -6.7997    9.9646 H   0  0  0  0  0  0  0  0  0  0  0  0
   10.3611    2.2876    7.2298 H   0  0  0  0  0  0  0  0  0  0  0  0
    9.5340    3.8470    6.9241 H   0  0  0  0  0  0  0  0  0  0  0  0
    9.6029    2.6123    5.6331 H   0  0  0  0  0  0  0  0  0  0  0  0
   -0.5764   -1.2577    3.6163 H   0  0  0  0  0  0  0  0  0  0  0  0
    0.9266   -1.0941    4.5550 H   0  0  0  0  0  0  0  0  0  0  0  0
   -0.1153    0.2818    4.3177 H   0  0  0  0  0  0  0  0  0  0  0  0
   -0.7240   -2.2408    5.9038 H   0  0  0  0  0  0  0  0  0  0  0  0
   -1.9195   -0.9900    5.6788 H   0  0  0  0  0  0  0  0  0  0  0  0
   -2.6497    1.8345    3.6703 H   0  0  0  0  0  0  0  0  0  0  0  0
   -3.8885    1.2325    4.7695 H   0  0  0  0  0  0  0  0  0  0  0  0
   -2.6202    0.1660    4.1868 H   0  0  0  0  0  0  0  0  0  0  0  0
   -2.1770    2.6425    5.9179 H   0  0  0  0  0  0  0  0  0  0  0  0
   -0.9069    1.5319    5.4993 H   0  0  0  0  0  0  0  0  0  0  0  0
   -1.6106    6.9119   10.4280 H   0  0  0  0  0  0  0  0  0  0  0  0
   -3.4058    6.9130   10.4660 H   0  0  0  0  0  0  0  0  0  0  0  0
   -2.5386    7.0902    8.9059 H   0  0  0  0  0  0  0  0  0  0  0  0
  -11.5675   -4.7997    6.2449 H   0  0  0  0  0  0  0  0  0  0  0  0
  -11.7939   -3.0357    6.0229 H   0  0  0  0  0  0  0  0  0  0  0  0
  -11.8928   -3.7459    7.6585 H   0  0  0  0  0  0  0  0  0  0  0  0
   -4.2795    6.4039    6.8670 H   0  0  0  0  0  0  0  0  0  0  0  0
   -4.9014    5.4749    5.4684 H   0  0  0  0  0  0  0  0  0  0  0  0
   -3.5062    6.5838    5.2556 H   0  0  0  0  0  0  0  0  0  0  0  0
   -8.9106   -0.0697    8.3505 H   0  0  0  0  0  0  0  0  0  0  0  0
   -7.6572   -3.8590    6.9346 H   0  0  0  0  0  0  0  0  0  0  0  0
   -5.8866    3.3570    9.3507 H   0  0  0  0  0  0  0  0  0  0  0  0
   -3.1160   -5.0721    6.6701 H   0  0  0  0  0  0  0  0  0  0  0  0
    3.5866   -2.8319    9.0751 H   0  0  0  0  0  0  0  0  0  0  0  0
    6.5103    0.5543    7.6268 H   0  0  0  0  0  0  0  0  0  0  0  0
    5.0914    4.2440    6.1045 H   0  0  0  0  0  0  0  0  0  0  0  0
    0.5738    5.4658    6.3414 H   0  0  0  0  0  0  0  0  0  0  0  0
  1  2  1  0  0  0  0
  1  6  1  0  0  0  0
  1 44  1  0  0  0  0
  2  3  2  0  0  0  0
  2 22  1  0  0  0  0
  3  7  1  0  0  0  0
  4  3  1  0  0  0  0
  4  5  1  0  0  0  0
  4 10  1  0  0  0  0
  5  6  2  0  0  0  0
  5111  1  0  0  0  0
  6 23  1  0  0  0  0
  7 11  2  0  0  0  0
  8  7  1  0  0  0  0
  8  9  1  0  0  0  0
  8 14  1  0  0  0  0
  9 10  2  0  0  0  0
  9 17  1  0  0  0  0
 11 12  1  0  0  0  0
 11 18  1  0  0  0  0
 12 13  2  0  0  0  0
 12 21  1  0  0  0  0
 13 14  1  0  0  0  0
 14 15  2  0  0  0  0
 15 16  1  0  0  0  0
 15109  1  0  0  0  0
 16 17  2  0  0  0  0
 16 25  1  0  0  0  0
 17110  1  0  0  0  0
 18 19  2  0  0  0  0
 18 70  1  0  0  0  0
 19 20  1  0  0  0  0
 20 21  2  0  0  0  0
 20 24  1  0  0  0  0
 21108  1  0  0  0  0
 23 67  2  0  0  0  0
 23 68  1  0  0  0  0
 24 55  1  0  0  0  0
 24 57  2  0  0  0  0
 25 52  2  0  0  0  0
 25 53  1  0  0  0  0
 26 19  1  0  0  0  0
 26 27  1  0  0  0  0
 26 31  1  0  0  0  0
 27 28  2  0  0  0  0
 27 47  1  0  0  0  0
 28 32  1  0  0  0  0
 29 28  1  0  0  0  0
 29 30  1  0  0  0  0
 29 35  1  0  0  0  0
 30 31  2  0  0  0  0
 30107  1  0  0  0  0
 31 48  1  0  0  0  0
 32 36  2  0  0  0  0
 33 32  1  0  0  0  0
 33 34  1  0  0  0  0
 33 39  1  0  0  0  0
 34 35  2  0  0  0  0
 34 42  1  0  0  0  0
 36 37  1  0  0  0  0
 36 43  1  0  0  0  0
 37 38  2  0  0  0  0
 37 46  1  0  0  0  0
 38 39  1  0  0  0  0
 39 40  2  0  0  0  0
 40 41  1  0  0  0  0
 40104  1  0  0  0  0
 41 42  2  0  0  0  0
 41 50  1  0  0  0  0
 42105  1  0  0  0  0
 43 44  2  0  0  0  0
 43 73  1  0  0  0  0
 44 45  1  0  0  0  0
 45 46  2  0  0  0  0
 45 49  1  0  0  0  0
 46106  1  0  0  0  0
 47 51  1  0  0  0  0
 48 58  2  0  0  0  0
 48 59  1  0  0  0  0
 49 64  2  0  0  0  0
 49 65  1  0  0  0  0
 50 61  2  0  0  0  0
 50 62  1  0  0  0  0
 51 22  1  0  0  0  0
 51 70  1  0  0  0  0
 51 73  1  0  0  0  0
 53 54  1  0  0  0  0
 54 82  1  0  0  0  0
 54 83  1  0  0  0  0
 54 84  1  0  0  0  0
 55 56  1  0  0  0  0
 56 79  1  0  0  0  0
 56 80  1  0  0  0  0
 56 81  1  0  0  0  0
 59 60  1  0  0  0  0
 60 76  1  0  0  0  0
 60 77  1  0  0  0  0
 60 78  1  0  0  0  0
 62 63  1  0  0  0  0
 63 98  1  0  0  0  0
 63 99  1  0  0  0  0
 63100  1  0  0  0  0
 65 66  1  0  0  0  0
 66 95  1  0  0  0  0
 66 96  1  0  0  0  0
 66 97  1  0  0  0  0
 68 69  1  0  0  0  0
 69101  1  0  0  0  0
 69102  1  0  0  0  0
 69103  1  0  0  0  0
 70 72  1  0  0  0  0
 71 72  1  0  0  0  0
 71 85  1  0  0  0  0
 71 86  1  0  0  0  0
 71 87  1  0  0  0  0
 72 88  1  0  0  0  0
 72 89  1  0  0  0  0
 73 75  1  0  0  0  0
 74 75  1  0  0  0  0
 74 90  1  0  0  0  0
 74 91  1  0  0  0  0
 74 92  1  0  0  0  0
 75 93  1  0  0  0  0
 75 94  1  0  0  0  0
112113  1  0  0  0  0
112117  1  0  0  0  0
112155  1  0  0  0  0
113114  2  0  0  0  0
113133  1  0  0  0  0
114118  1  0  0  0  0
115114  1  0  0  0  0
115116  1  0  0  0  0
115121  1  0  0  0  0
116117  2  0  0  0  0
116222  1  0  0  0  0
117134  1  0  0  0  0
118122  2  0  0  0  0
119118  1  0  0  0  0
119120  1  0  0  0  0
119125  1  0  0  0  0
120121  2  0  0  0  0
120128  1  0  0  0  0
122123  1  0  0  0  0
122129  1  0  0  0  0
123124  2  0  0  0  0
123132  1  0  0  0  0
124125  1  0  0  0  0
125126  2  0  0  0  0
126127  1  0  0  0  0
126220  1  0  0  0  0
127128  2  0  0  0  0
127136  1  0  0  0  0
128221  1  0  0  0  0
129130  2  0  0  0  0
129181  1  0  0  0  0
130131  1  0  0  0  0
131132  2  0  0  0  0
131135  1  0  0  0  0
132219  1  0  0  0  0
134178  2  0  0  0  0
134179  1  0  0  0  0
135166  1  0  0  0  0
135168  2  0  0  0  0
136163  2  0  0  0  0
136164  1  0  0  0  0
137130  1  0  0  0  0
137138  1  0  0  0  0
137142  1  0  0  0  0
138139  2  0  0  0  0
138158  1  0  0  0  0
139143  1  0  0  0  0
140139  1  0  0  0  0
140141  1  0  0  0  0
140146  1  0  0  0  0
141142  2  0  0  0  0
141218  1  0  0  0  0
142159  1  0  0  0  0
143147  2  0  0  0  0
144143  1  0  0  0  0
144145  1  0  0  0  0
144150  1  0  0  0  0
145146  2  0  0  0  0
145153  1  0  0  0  0
147148  1  0  0  0  0
147154  1  0  0  0  0
148149  2  0  0  0  0
148157  1  0  0  0  0
149150  1  0  0  0  0
150151  2  0  0  0  0
151152  1  0  0  0  0
151215  1  0  0  0  0
152153  2  0  0  0  0
152161  1  0  0  0  0
153216  1  0  0  0  0
154155  2  0  0  0  0
154184  1  0  0  0  0
155156  1  0  0  0  0
156157  2  0  0  0  0
156160  1  0  0  0  0
157217  1  0  0  0  0
158162  1  0  0  0  0
159169  2  0  0  0  0
159170  1  0  0  0  0
160175  2  0  0  0  0
160176  1  0  0  0  0
161172  2  0  0  0  0
161173  1  0  0  0  0
162133  1  0  0  0  0
162181  1  0  0  0  0
162184  1  0  0  0  0
164165  1  0  0  0  0
165193  1  0  0  0  0
165194  1  0  0  0  0
165195  1  0  0  0  0
166167  1  0  0  0  0
167190  1  0  0  0  0
167191  1  0  0  0  0
167192  1  0  0  0  0
170171  1  0  0  0  0
171187  1  0  0  0  0
171188  1  0  0  0  0
171189  1  0  0  0  0
173174  1  0  0  0  0
174209  1  0  0  0  0
174210  1  0  0  0  0
174211  1  0  0  0  0
176177  1  0  0  0  0
177206  1  0  0  0  0
177207  1  0  0  0  0
177208  1  0  0  0  0
179180  1  0  0  0  0
180212  1  0  0  0  0
180213  1  0  0  0  0
180214  1  0  0  0  0
181183  1  0  0  0  0
182183  1  0  0  0  0
182196  1  0  0  0  0
182197  1  0  0  0  0
182198  1  0  0  0  0
183199  1  0  0  0  0
183200  1  0  0  0  0
184186  1  0  0  0  0
185186  1  0  0  0  0
185201  1  0  0  0  0
185202  1  0  0  0  0
185203  1  0  0  0  0
186204  1  0  0  0  0
186205  1  0  0  0  0
M  END
