xtb: 6.7.1 (edcfbbe)_xtb: 6.7.1 (edcfbbe)
 OpenBabel12102414203D

222248  0  0  0  0  0  0  0  0999 V2000
   -0.6754    3.4663    0.7271 C   0  0  2  0  0  0  0  0  0  0  0  0
    0.1657    2.3881    1.0628 C   0  0  0  0  0  0  0  0  0  0  0  0
    1.5562    2.3224    1.0154 C   0  0  0  0  0  0  0  0  0  0  0  0
    2.2241    3.5737    0.8546 C   0  0  1  0  0  0  0  0  0  0  0  0
    1.4124    4.7101    0.5576 C   0  0  0  0  0  0  0  0  0  0  0  0
    0.0357    4.6701    0.4727 C   0  0  0  0  0  0  0  0  0  0  0  0
    2.2856    1.0973    1.2967 C   0  0  0  0  0  0  0  0  0  0  0  0
    3.6242    1.3334    1.6614 C   0  0  1  0  0  0  0  0  0  0  0  0
    4.2097    2.6355    1.4871 C   0  0  0  0  0  0  0  0  0  0  0  0
    3.5313    3.6989    1.0339 N   0  0  0  0  0  0  0  0  0  0  0  0
    1.8571   -0.2937    1.3282 C   0  0  0  0  0  0  0  0  0  0  0  0
    2.6738   -1.2250    2.0575 C   0  0  0  0  0  0  0  0  0  0  0  0
    3.8851   -0.9238    2.4983 N   0  0  0  0  0  0  0  0  0  0  0  0
    4.4046    0.2805    2.2383 C   0  0  0  0  0  0  0  0  0  0  0  0
    5.7445    0.5246    2.5839 C   0  0  0  0  0  0  0  0  0  0  0  0
    6.3145    1.7683    2.3480 C   0  0  0  0  0  0  0  0  0  0  0  0
    5.5655    2.8080    1.8093 C   0  0  0  0  0  0  0  0  0  0  0  0
    0.8135   -0.9186    0.6010 C   0  0  0  0  0  0  0  0  0  0  0  0
    0.2458   -2.1934    0.8815 C   0  0  0  0  0  0  0  0  0  0  0  0
    0.9977   -3.0101    1.7571 C   0  0  0  0  0  0  0  0  0  0  0  0
    2.1888   -2.5497    2.2709 C   0  0  0  0  0  0  0  0  0  0  0  0
   -0.3956    1.2790    1.4960 O   0  0  0  0  0  0  0  0  0  0  0  0
   -0.6831    5.9125    0.0718 C   0  0  0  0  0  0  0  0  0  0  0  0
    0.4478   -4.3319    2.1666 C   0  0  0  0  0  0  0  0  0  0  0  0
    7.7438    2.0401    2.6702 C   0  0  0  0  0  0  0  0  0  0  0  0
   -1.1155   -2.4727    0.3538 C   0  0  2  0  0  0  0  0  0  0  0  0
   -2.0407   -1.4185    0.4791 C   0  0  0  0  0  0  0  0  0  0  0  0
   -3.3272   -1.3229   -0.0460 C   0  0  0  0  0  0  0  0  0  0  0  0
   -3.8725   -2.5398   -0.5556 C   0  0  1  0  0  0  0  0  0  0  0  0
   -2.9880   -3.6555   -0.6595 C   0  0  0  0  0  0  0  0  0  0  0  0
   -1.6697   -3.6337   -0.2511 C   0  0  0  0  0  0  0  0  0  0  0  0
   -4.1281   -0.1162    0.0737 C   0  0  0  0  0  0  0  0  0  0  0  0
   -5.5048   -0.3604   -0.0888 C   0  0  1  0  0  0  0  0  0  0  0  0
   -5.9680   -1.6282   -0.5843 C   0  0  0  0  0  0  0  0  0  0  0  0
   -5.1554   -2.6558   -0.8677 N   0  0  0  0  0  0  0  0  0  0  0  0
   -3.7625    1.2579    0.3881 C   0  0  0  0  0  0  0  0  0  0  0  0
   -4.8032    2.1354    0.8524 C   0  0  0  0  0  0  0  0  0  0  0  0
   -6.0853    1.8145    0.8013 N   0  0  0  0  0  0  0  0  0  0  0  0
   -6.4576    0.6474    0.2680 C   0  0  0  0  0  0  0  0  0  0  0  0
   -7.8264    0.3896    0.0888 C   0  0  0  0  0  0  0  0  0  0  0  0
   -8.2551   -0.8154   -0.4530 C   0  0  0  0  0  0  0  0  0  0  0  0
   -7.3467   -1.8116   -0.7874 C   0  0  0  0  0  0  0  0  0  0  0  0
   -2.5416    1.9334    0.1397 C   0  0  0  0  0  0  0  0  0  0  0  0
   -2.1309    3.1710    0.7164 C   0  0  0  0  0  0  0  0  0  0  0  0
   -3.1635    3.9216    1.3219 C   0  0  0  0  0  0  0  0  0  0  0  0
   -4.4511    3.4343    1.3254 C   0  0  0  0  0  0  0  0  0  0  0  0
   -1.6839   -0.3635    1.1813 O   0  0  0  0  0  0  0  0  0  0  0  0
   -0.8368   -4.8375   -0.5182 C   0  0  0  0  0  0  0  0  0  0  0  0
   -2.9104    5.2464    1.9633 C   0  0  0  0  0  0  0  0  0  0  0  0
   -9.7204   -1.0036   -0.6518 C   0  0  0  0  0  0  0  0  0  0  0  0
   -0.8715    0.5025    0.4092 B   0  0  2  0  0  0  0  0  0  0  0  0
    8.2915    3.0956    2.4755 O   0  0  0  0  0  0  0  0  0  0  0  0
    8.3603    0.9763    3.1984 O   0  0  0  0  0  0  0  0  0  0  0  0
    9.7306    1.1559    3.5258 C   0  0  0  0  0  0  0  0  0  0  0  0
    1.4071   -5.2483    2.3386 O   0  0  0  0  0  0  0  0  0  0  0  0
    0.9563   -6.5437    2.7198 C   0  0  0  0  0  0  0  0  0  0  0  0
   -0.7245   -4.5573    2.3249 O   0  0  0  0  0  0  0  0  0  0  0  0
   -1.2517   -5.9622   -0.6072 O   0  0  0  0  0  0  0  0  0  0  0  0
    0.4502   -4.4949   -0.7038 O   0  0  0  0  0  0  0  0  0  0  0  0
    1.3791   -5.5332   -0.9897 C   0  0  0  0  0  0  0  0  0  0  0  0
  -10.5537   -0.1913   -0.3388 O   0  0  0  0  0  0  0  0  0  0  0  0
  -10.0116   -2.1758   -1.2260 O   0  0  0  0  0  0  0  0  0  0  0  0
  -11.3904   -2.4271   -1.4556 C   0  0  0  0  0  0  0  0  0  0  0  0
   -3.6614    6.1854    1.8771 O   0  0  0  0  0  0  0  0  0  0  0  0
   -1.7763    5.2503    2.6623 O   0  0  0  0  0  0  0  0  0  0  0  0
   -1.4351    6.4593    3.3339 C   0  0  0  0  0  0  0  0  0  0  0  0
   -0.3232    7.0280    0.3499 O   0  0  0  0  0  0  0  0  0  0  0  0
   -1.7632    5.6335   -0.6659 O   0  0  0  0  0  0  0  0  0  0  0  0
   -2.5511    6.7388   -1.0976 C   0  0  0  0  0  0  0  0  0  0  0  0
    0.2722   -0.1632   -0.4145 N   0  0  0  0  0  0  0  0  0  0  0  0
    1.3418   -0.5295   -2.5660 C   0  0  0  0  0  0  0  0  0  0  0  0
    0.1185   -0.8312   -1.6959 C   0  0  0  0  0  0  0  0  0  0  0  0
   -1.6673    1.2711   -0.6906 N   0  0  0  0  0  0  0  0  0  0  0  0
   -1.9384    1.8584   -3.0333 C   0  0  0  0  0  0  0  0  0  0  0  0
   -1.0945    2.0562   -1.7712 C   0  0  0  0  0  0  0  0  0  0  0  0
    1.9255   -5.2517   -1.8893 H   0  0  0  0  0  0  0  0  0  0  0  0
    0.8472   -6.4735   -1.1469 H   0  0  0  0  0  0  0  0  0  0  0  0
    2.0688   -5.6252   -0.1496 H   0  0  0  0  0  0  0  0  0  0  0  0
    0.1834   -6.8924    2.0314 H   0  0  0  0  0  0  0  0  0  0  0  0
    0.5395   -6.5156    3.7282 H   0  0  0  0  0  0  0  0  0  0  0  0
    1.8282   -7.1917    2.6848 H   0  0  0  0  0  0  0  0  0  0  0  0
   10.0712    0.2096    3.9376 H   0  0  0  0  0  0  0  0  0  0  0  0
    9.8438    1.9576    4.2583 H   0  0  0  0  0  0  0  0  0  0  0  0
   10.3025    1.4153    2.6326 H   0  0  0  0  0  0  0  0  0  0  0  0
    1.2215   -0.9998   -3.5386 H   0  0  0  0  0  0  0  0  0  0  0  0
    2.2373   -0.9258   -2.0924 H   0  0  0  0  0  0  0  0  0  0  0  0
    1.4773    0.5393   -2.7080 H   0  0  0  0  0  0  0  0  0  0  0  0
    0.0514   -1.9182   -1.5877 H   0  0  0  0  0  0  0  0  0  0  0  0
   -0.7937   -0.4805   -2.1745 H   0  0  0  0  0  0  0  0  0  0  0  0
   -1.5087    2.4319   -3.8506 H   0  0  0  0  0  0  0  0  0  0  0  0
   -2.9532    2.2075   -2.8555 H   0  0  0  0  0  0  0  0  0  0  0  0
   -1.9845    0.8126   -3.3248 H   0  0  0  0  0  0  0  0  0  0  0  0
   -1.0907    3.1269   -1.5450 H   0  0  0  0  0  0  0  0  0  0  0  0
   -0.0669    1.7393   -1.9377 H   0  0  0  0  0  0  0  0  0  0  0  0
   -0.7525    6.1814    4.1329 H   0  0  0  0  0  0  0  0  0  0  0  0
   -2.3334    6.9330    3.7336 H   0  0  0  0  0  0  0  0  0  0  0  0
   -0.9441    7.1422    2.6374 H   0  0  0  0  0  0  0  0  0  0  0  0
  -11.4470   -3.4078   -1.9205 H   0  0  0  0  0  0  0  0  0  0  0  0
  -11.8100   -1.6640   -2.1144 H   0  0  0  0  0  0  0  0  0  0  0  0
  -11.9404   -2.4157   -0.5125 H   0  0  0  0  0  0  0  0  0  0  0  0
   -3.2368    7.0331   -0.3003 H   0  0  0  0  0  0  0  0  0  0  0  0
   -3.1075    6.3971   -1.9668 H   0  0  0  0  0  0  0  0  0  0  0  0
   -1.9064    7.5817   -1.3523 H   0  0  0  0  0  0  0  0  0  0  0  0
   -8.5467    1.1429    0.3668 H   0  0  0  0  0  0  0  0  0  0  0  0
   -7.6815   -2.7535   -1.1895 H   0  0  0  0  0  0  0  0  0  0  0  0
   -5.2481    4.0402    1.7289 H   0  0  0  0  0  0  0  0  0  0  0  0
   -3.3839   -4.5675   -1.0801 H   0  0  0  0  0  0  0  0  0  0  0  0
    2.7888   -3.1892    2.8993 H   0  0  0  0  0  0  0  0  0  0  0  0
    6.3170   -0.2741    3.0252 H   0  0  0  0  0  0  0  0  0  0  0  0
    6.0219    3.7725    1.6513 H   0  0  0  0  0  0  0  0  0  0  0  0
    1.9164    5.6509    0.3953 H   0  0  0  0  0  0  0  0  0  0  0  0
   -0.6754    3.4663    8.7271 C   0  0  2  0  0  0  0  0  0  0  0  0
    0.1657    2.3881    9.0628 C   0  0  0  0  0  0  0  0  0  0  0  0
    1.5562    2.3224    9.0154 C   0  0  0  0  0  0  0  0  0  0  0  0
    2.2241    3.5737    8.8546 C   0  0  1  0  0  0  0  0  0  0  0  0
    1.4124    4.7101    8.5576 C   0  0  0  0  0  0  0  0  0  0  0  0
    0.0357    4.6701    8.4727 C   0  0  0  0  0  0  0  0  0  0  0  0
    2.2856    1.0973    9.2967 C   0  0  0  0  0  0  0  0  0  0  0  0
    3.6242    1.3334    9.6614 C   0  0  1  0  0  0  0  0  0  0  0  0
    4.2097    2.6355    9.4871 C   0  0  0  0  0  0  0  0  0  0  0  0
    3.5313    3.6989    9.0339 N   0  0  0  0  0  0  0  0  0  0  0  0
    1.8571   -0.2937    9.3282 C   0  0  0  0  0  0  0  0  0  0  0  0
    2.6738   -1.2250   10.0575 C   0  0  0  0  0  0  0  0  0  0  0  0
    3.8851   -0.9238   10.4983 N   0  0  0  0  0  0  0  0  0  0  0  0
    4.4046    0.2805   10.2383 C   0  0  0  0  0  0  0  0  0  0  0  0
    5.7445    0.5246   10.5839 C   0  0  0  0  0  0  0  0  0  0  0  0
    6.3145    1.7683   10.3480 C   0  0  0  0  0  0  0  0  0  0  0  0
    5.5655    2.8080    9.8093 C   0  0  0  0  0  0  0  0  0  0  0  0
    0.8135   -0.9186    8.6010 C   0  0  0  0  0  0  0  0  0  0  0  0
    0.2458   -2.1934    8.8815 C   0  0  0  0  0  0  0  0  0  0  0  0
    0.9977   -3.0101    9.7571 C   0  0  0  0  0  0  0  0  0  0  0  0
    2.1888   -2.5497   10.2709 C   0  0  0  0  0  0  0  0  0  0  0  0
   -0.3956    1.2790    9.4960 O   0  0  0  0  0  0  0  0  0  0  0  0
   -0.6831    5.9125    8.0718 C   0  0  0  0  0  0  0  0  0  0  0  0
    0.4478   -4.3319   10.1666 C   0  0  0  0  0  0  0  0  0  0  0  0
    7.7438    2.0401   10.6702 C   0  0  0  0  0  0  0  0  0  0  0  0
   -1.1155   -2.4727    8.3538 C   0  0  2  0  0  0  0  0  0  0  0  0
   -2.0407   -1.4185    8.4791 C   0  0  0  0  0  0  0  0  0  0  0  0
   -3.3272   -1.3229    7.9540 C   0  0  0  0  0  0  0  0  0  0  0  0
   -3.8725   -2.5398    7.4444 C   0  0  1  0  0  0  0  0  0  0  0  0
   -2.9880   -3.6555    7.3405 C   0  0  0  0  0  0  0  0  0  0  0  0
   -1.6697   -3.6337    7.7489 C   0  0  0  0  0  0  0  0  0  0  0  0
   -4.1281   -0.1162    8.0737 C   0  0  0  0  0  0  0  0  0  0  0  0
   -5.5048   -0.3604    7.9112 C   0  0  1  0  0  0  0  0  0  0  0  0
   -5.9680   -1.6282    7.4157 C   0  0  0  0  0  0  0  0  0  0  0  0
   -5.1554   -2.6558    7.1323 N   0  0  0  0  0  0  0  0  0  0  0  0
   -3.7625    1.2579    8.3881 C   0  0  0  0  0  0  0  0  0  0  0  0
   -4.8032    2.1354    8.8524 C   0  0  0  0  0  0  0  0  0  0  0  0
   -6.0853    1.8145    8.8013 N   0  0  0  0  0  0  0  0  0  0  0  0
   -6.4576    0.6474    8.2680 C   0  0  0  0  0  0  0  0  0  0  0  0
   -7.8264    0.3896    8.0888 C   0  0  0  0  0  0  0  0  0  0  0  0
   -8.2551   -0.8154    7.5470 C   0  0  0  0  0  0  0  0  0  0  0  0
   -7.3467   -1.8116    7.2126 C   0  0  0  0  0  0  0  0  0  0  0  0
   -2.5416    1.9334    8.1397 C   0  0  0  0  0  0  0  0  0  0  0  0
   -2.1309    3.1710    8.7164 C   0  0  0  0  0  0  0  0  0  0  0  0
   -3.1635    3.9216    9.3219 C   0  0  0  0  0  0  0  0  0  0  0  0
   -4.4511    3.4343    9.3254 C   0  0  0  0  0  0  0  0  0  0  0  0
   -1.6839   -0.3635    9.1813 O   0  0  0  0  0  0  0  0  0  0  0  0
   -0.8368   -4.8375    7.4818 C   0  0  0  0  0  0  0  0  0  0  0  0
   -2.9104    5.2464    9.9633 C   0  0  0  0  0  0  0  0  0  0  0  0
   -9.7204   -1.0036    7.3482 C   0  0  0  0  0  0  0  0  0  0  0  0
   -0.8715    0.5025    8.4092 B   0  0  2  0  0  0  0  0  0  0  0  0
    8.2915    3.0956   10.4755 O   0  0  0  0  0  0  0  0  0  0  0  0
    8.3603    0.9763   11.1984 O   0  0  0  0  0  0  0  0  0  0  0  0
    9.7306    1.1559   11.5258 C   0  0  0  0  0  0  0  0  0  0  0  0
    1.4071   -5.2483   10.3386 O   0  0  0  0  0  0  0  0  0  0  0  0
    0.9563   -6.5437   10.7198 C   0  0  0  0  0  0  0  0  0  0  0  0
   -0.7245   -4.5573   10.3249 O   0  0  0  0  0  0  0  0  0  0  0  0
   -1.2517   -5.9622    7.3928 O   0  0  0  0  0  0  0  0  0  0  0  0
    0.4502   -4.4949    7.2962 O   0  0  0  0  0  0  0  0  0  0  0  0
    1.3791   -5.5332    7.0103 C   0  0  0  0  0  0  0  0  0  0  0  0
  -10.5537   -0.1913    7.6612 O   0  0  0  0  0  0  0  0  0  0  0  0
  -10.0116   -2.1758    6.7740 O   0  0  0  0  0  0  0  0  0  0  0  0
  -11.3904   -2.4271    6.5444 C   0  0  0  0  0  0  0  0  0  0  0  0
   -3.6614    6.1854    9.8771 O   0  0  0  0  0  0  0  0  0  0  0  0
   -1.7763    5.2503   10.6623 O   0  0  0  0  0  0  0  0  0  0  0  0
   -1.4351    6.4593   11.3339 C   0  0  0  0  0  0  0  0  0  0  0  0
   -0.3232    7.0280    8.3499 O   0  0  0  0  0  0  0  0  0  0  0  0
   -1.7632    5.6335    7.3341 O   0  0  0  0  0  0  0  0  0  0  0  0
   -2.5511    6.7388    6.9024 C   0  0  0  0  0  0  0  0  0  0  0  0
    0.2722   -0.1632    7.5855 N   0  0  0  0  0  0  0  0  0  0  0  0
    1.3418   -0.5295    5.4340 C   0  0  0  0  0  0  0  0  0  0  0  0
    0.1185   -0.8312    6.3041 C   0  0  0  0  0  0  0  0  0  0  0  0
   -1.6673    1.2711    7.3094 N   0  0  0  0  0  0  0  0  0  0  0  0
   -1.9384    1.8584    4.9667 C   0  0  0  0  0  0  0  0  0  0  0  0
   -1.0945    2.0562    6.2288 C   0  0  0  0  0  0  0  0  0  0  0  0
    1.9255   -5.2517    6.1107 H   0  0  0  0  0  0  0  0  0  0  0  0
    0.8472   -6.4735    6.8531 H   0  0  0  0  0  0  0  0  0  0  0  0
    2.0688   -5.6252    7.8504 H   0  0  0  0  0  0  0  0  0  0  0  0
    0.1834   -6.8924   10.0314 H   0  0  0  0  0  0  0  0  0  0  0  0
    0.5395   -6.5156   11.7282 H   0  0  0  0  0  0  0  0  0  0  0  0
    1.8282   -7.1917   10.6848 H   0  0  0  0  0  0  0  0  0  0  0  0
   10.0712    0.2096   11.9376 H   0  0  0  0  0  0  0  0  0  0  0  0
    9.8438    1.9576   12.2583 H   0  0  0  0  0  0  0  0  0  0  0  0
   10.3025    1.4153   10.6326 H   0  0  0  0  0  0  0  0  0  0  0  0
    1.2215   -0.9998    4.4614 H   0  0  0  0  0  0  0  0  0  0  0  0
    2.2373   -0.9258    5.9076 H   0  0  0  0  0  0  0  0  0  0  0  0
    1.4773    0.5393    5.2920 H   0  0  0  0  0  0  0  0  0  0  0  0
    0.0514   -1.9182    6.4123 H   0  0  0  0  0  0  0  0  0  0  0  0
   -0.7937   -0.4805    5.8255 H   0  0  0  0  0  0  0  0  0  0  0  0
   -1.5087    2.4319    4.1494 H   0  0  0  0  0  0  0  0  0  0  0  0
   -2.9532    2.2075    5.1445 H   0  0  0  0  0  0  0  0  0  0  0  0
   -1.9845    0.8126    4.6752 H   0  0  0  0  0  0  0  0  0  0  0  0
   -1.0907    3.1269    6.4550 H   0  0  0  0  0  0  0  0  0  0  0  0
   -0.0669    1.7393    6.0623 H   0  0  0  0  0  0  0  0  0  0  0  0
   -0.7525    6.1814   12.1329 H   0  0  0  0  0  0  0  0  0  0  0  0
   -2.3334    6.9330   11.7336 H   0  0  0  0  0  0  0  0  0  0  0  0
   -0.9441    7.1422   10.6374 H   0  0  0  0  0  0  0  0  0  0  0  0
  -11.4470   -3.4078    6.0795 H   0  0  0  0  0  0  0  0  0  0  0  0
  -11.8100   -1.6640    5.8856 H   0  0  0  0  0  0  0  0  0  0  0  0
  -11.9404   -2.4157    7.4875 H   0  0  0  0  0  0  0  0  0  0  0  0
   -3.2368    7.0331    7.6997 H   0  0  0  0  0  0  0  0  0  0  0  0
   -3.1075    6.3971    6.0332 H   0  0  0  0  0  0  0  0  0  0  0  0
   -1.9064    7.5817    6.6477 H   0  0  0  0  0  0  0  0  0  0  0  0
   -8.5467    1.1429    8.3668 H   0  0  0  0  0  0  0  0  0  0  0  0
   -7.6815   -2.7535    6.8105 H   0  0  0  0  0  0  0  0  0  0  0  0
   -5.2481    4.0402    9.7289 H   0  0  0  0  0  0  0  0  0  0  0  0
   -3.3839   -4.5675    6.9199 H   0  0  0  0  0  0  0  0  0  0  0  0
    2.7888   -3.1892   10.8993 H   0  0  0  0  0  0  0  0  0  0  0  0
    6.3170   -0.2741   11.0252 H   0  0  0  0  0  0  0  0  0  0  0  0
    6.0219    3.7725    9.6513 H   0  0  0  0  0  0  0  0  0  0  0  0
    1.9164    5.6509    8.3953 H   0  0  0  0  0  0  0  0  0  0  0  0
  1  2  1  1  0  0  0
  1  6  1  0  0  0  0
  1 44  1  0  0  0  0
  2  3  2  0  0  0  0
  2 22  1  0  0  0  0
  3  7  1  0  0  0  0
  4  3  1  1  0  0  0
  4  5  1  0  0  0  0
  4 10  1  0  0  0  0
  5  6  2  0  0  0  0
  5111  1  0  0  0  0
  6 23  1  0  0  0  0
  7 11  2  0  0  0  0
  8  7  1  1  0  0  0
  8  9  1  0  0  0  0
  8 14  1  0  0  0  0
  9 10  2  0  0  0  0
  9 17  1  0  0  0  0
 11 12  1  0  0  0  0
 11 18  1  0  0  0  0
 12 13  2  0  0  0  0
 12 21  1  0  0  0  0
 13 14  1  0  0  0  0
 14 15  2  0  0  0  0
 15 16  1  0  0  0  0
 15109  1  0  0  0  0
 16 17  2  0  0  0  0
 16 25  1  0  0  0  0
 17110  1  0  0  0  0
 18 19  2  0  0  0  0
 18 70  1  0  0  0  0
 19 20  1  0  0  0  0
 20 21  2  0  0  0  0
 20 24  1  0  0  0  0
 21108  1  0  0  0  0
 23 67  2  0  0  0  0
 23 68  1  0  0  0  0
 24 55  1  0  0  0  0
 24 57  2  0  0  0  0
 25 52  2  0  0  0  0
 25 53  1  0  0  0  0
 26 19  1  1  0  0  0
 26 27  1  0  0  0  0
 26 31  1  0  0  0  0
 27 28  2  0  0  0  0
 27 47  1  0  0  0  0
 28 32  1  0  0  0  0
 29 28  1  1  0  0  0
 29 30  1  0  0  0  0
 29 35  1  0  0  0  0
 30 31  2  0  0  0  0
 30107  1  0  0  0  0
 31 48  1  0  0  0  0
 32 36  2  0  0  0  0
 33 32  1  1  0  0  0
 33 34  1  0  0  0  0
 33 39  1  0  0  0  0
 34 35  2  0  0  0  0
 34 42  1  0  0  0  0
 36 37  1  0  0  0  0
 36 43  1  0  0  0  0
 37 38  2  0  0  0  0
 37 46  1  0  0  0  0
 38 39  1  0  0  0  0
 39 40  2  0  0  0  0
 40 41  1  0  0  0  0
 40104  1  0  0  0  0
 41 42  2  0  0  0  0
 41 50  1  0  0  0  0
 42105  1  0  0  0  0
 43 44  2  0  0  0  0
 43 73  1  0  0  0  0
 44 45  1  0  0  0  0
 45 46  2  0  0  0  0
 45 49  1  0  0  0  0
 46106  1  0  0  0  0
 47 51  1  0  0  0  0
 48 58  2  0  0  0  0
 48 59  1  0  0  0  0
 49 64  2  0  0  0  0
 49 65  1  0  0  0  0
 50 61  2  0  0  0  0
 50 62  1  0  0  0  0
 51 22  1  1  0  0  0
 51 70  1  0  0  0  0
 51 73  1  0  0  0  0
 53 54  1  0  0  0  0
 54 82  1  0  0  0  0
 54 83  1  0  0  0  0
 54 84  1  0  0  0  0
 55 56  1  0  0  0  0
 56 79  1  0  0  0  0
 56 80  1  0  0  0  0
 56 81  1  0  0  0  0
 59 60  1  0  0  0  0
 60 76  1  0  0  0  0
 60 77  1  0  0  0  0
 60 78  1  0  0  0  0
 62 63  1  0  0  0  0
 63 98  1  0  0  0  0
 63 99  1  0  0  0  0
 63100  1  0  0  0  0
 65 66  1  0  0  0  0
 66 95  1  0  0  0  0
 66 96  1  0  0  0  0
 66 97  1  0  0  0  0
 68 69  1  0  0  0  0
 69101  1  0  0  0  0
 69102  1  0  0  0  0
 69103  1  0  0  0  0
 70 72  1  0  0  0  0
 71 72  1  0  0  0  0
 71 85  1  0  0  0  0
 71 86  1  0  0  0  0
 71 87  1  0  0  0  0
 72 88  1  0  0  0  0
 72 89  1  0  0  0  0
 73 75  1  0  0  0  0
 74 75  1  0  0  0  0
 74 90  1  0  0  0  0
 74 91  1  0  0  0  0
 74 92  1  0  0  0  0
 75 93  1  0  0  0  0
 75 94  1  0  0  0  0
112113  1  1  0  0  0
112117  1  0  0  0  0
112155  1  0  0  0  0
113114  2  0  0  0  0
113133  1  0  0  0  0
114118  1  0  0  0  0
115114  1  1  0  0  0
115116  1  0  0  0  0
115121  1  0  0  0  0
116117  2  0  0  0  0
116222  1  0  0  0  0
117134  1  0  0  0  0
118122  2  0  0  0  0
119118  1  1  0  0  0
119120  1  0  0  0  0
119125  1  0  0  0  0
120121  2  0  0  0  0
120128  1  0  0  0  0
122123  1  0  0  0  0
122129  1  0  0  0  0
123124  2  0  0  0  0
123132  1  0  0  0  0
124125  1  0  0  0  0
125126  2  0  0  0  0
126127  1  0  0  0  0
126220  1  0  0  0  0
127128  2  0  0  0  0
127136  1  0  0  0  0
128221  1  0  0  0  0
129130  2  0  0  0  0
129181  1  0  0  0  0
130131  1  0  0  0  0
131132  2  0  0  0  0
131135  1  0  0  0  0
132219  1  0  0  0  0
134178  2  0  0  0  0
134179  1  0  0  0  0
135166  1  0  0  0  0
135168  2  0  0  0  0
136163  2  0  0  0  0
136164  1  0  0  0  0
137130  1  1  0  0  0
137138  1  0  0  0  0
137142  1  0  0  0  0
138139  2  0  0  0  0
138158  1  0  0  0  0
139143  1  0  0  0  0
140139  1  1  0  0  0
140141  1  0  0  0  0
140146  1  0  0  0  0
141142  2  0  0  0  0
141218  1  0  0  0  0
142159  1  0  0  0  0
143147  2  0  0  0  0
144143  1  1  0  0  0
144145  1  0  0  0  0
144150  1  0  0  0  0
145146  2  0  0  0  0
145153  1  0  0  0  0
147148  1  0  0  0  0
147154  1  0  0  0  0
148149  2  0  0  0  0
148157  1  0  0  0  0
149150  1  0  0  0  0
150151  2  0  0  0  0
151152  1  0  0  0  0
151215  1  0  0  0  0
152153  2  0  0  0  0
152161  1  0  0  0  0
153216  1  0  0  0  0
154155  2  0  0  0  0
154184  1  0  0  0  0
155156  1  0  0  0  0
156157  2  0  0  0  0
156160  1  0  0  0  0
157217  1  0  0  0  0
158162  1  0  0  0  0
159169  2  0  0  0  0
159170  1  0  0  0  0
160175  2  0  0  0  0
160176  1  0  0  0  0
161172  2  0  0  0  0
161173  1  0  0  0  0
162133  1  1  0  0  0
162181  1  0  0  0  0
162184  1  0  0  0  0
164165  1  0  0  0  0
165193  1  0  0  0  0
165194  1  0  0  0  0
165195  1  0  0  0  0
166167  1  0  0  0  0
167190  1  0  0  0  0
167191  1  0  0  0  0
167192  1  0  0  0  0
170171  1  0  0  0  0
171187  1  0  0  0  0
171188  1  0  0  0  0
171189  1  0  0  0  0
173174  1  0  0  0  0
174209  1  0  0  0  0
174210  1  0  0  0  0
174211  1  0  0  0  0
176177  1  0  0  0  0
177206  1  0  0  0  0
177207  1  0  0  0  0
177208  1  0  0  0  0
179180  1  0  0  0  0
180212  1  0  0  0  0
180213  1  0  0  0  0
180214  1  0  0  0  0
181183  1  0  0  0  0
182183  1  0  0  0  0
182196  1  0  0  0  0
182197  1  0  0  0  0
182198  1  0  0  0  0
183199  1  0  0  0  0
183200  1  0  0  0  0
184186  1  0  0  0  0
185186  1  0  0  0  0
185201  1  0  0  0  0
185202  1  0  0  0  0
185203  1  0  0  0  0
186204  1  0  0  0  0
186205  1  0  0  0  0
M  END
