 energy: -88.027831517155 gnorm: 0.000540242408 xtb: 6.6.1 (8d0f1dd)
          11012414013D

 53 60  0     0  0            999 V2000
    0.7366    1.8054   -0.7343 C   0  0  0  0  0  0  0  0  0  0  0  0
    1.2466    1.0476    0.3747 C   0  0  0  0  0  0  0  0  0  0  0  0
   -0.6446    1.8843   -1.0907 C   0  0  0  0  0  0  0  0  0  0  0  0
    1.6569    2.5649   -1.4925 C   0  0  0  0  0  0  0  0  0  0  0  0
    2.6368    0.7819    0.4484 C   0  0  0  0  0  0  0  0  0  0  0  0
   -1.0878    3.0087   -1.8418 C   0  0  0  0  0  0  0  0  0  0  0  0
    3.0490    2.3131   -1.3677 C   0  0  0  0  0  0  0  0  0  0  0  0
    1.1924    3.5819   -2.3591 C   0  0  0  0  0  0  0  0  0  0  0  0
    3.5155    1.3949   -0.4860 C   0  0  0  0  0  0  0  0  0  0  0  0
   -0.1349    3.8632   -2.4483 C   0  0  0  0  0  0  0  0  0  0  0  0
    0.4431    0.6228    1.4488 C   0  0  0  0  0  0  0  0  0  0  0  0
   -1.6306    0.8969   -0.7886 C   0  0  0  0  0  0  0  0  0  0  0  0
    3.1327   -0.0320    1.4787 C   0  0  0  0  0  0  0  0  0  0  0  0
   -2.4648    3.2510   -2.0028 C   0  0  0  0  0  0  0  0  0  0  0  0
    0.9568   -0.1419    2.4678 C   0  0  0  0  0  0  0  0  0  0  0  0
   -3.0016    1.1947   -0.9153 C   0  0  0  0  0  0  0  0  0  0  0  0
    2.3017   -0.5139    2.4592 C   0  0  0  0  0  0  0  0  0  0  0  0
   -3.4094    2.4021   -1.4907 C   0  0  0  0  0  0  0  0  0  0  0  0
    3.7237    2.8603   -2.0082 H   0  0  0  0  0  0  0  0  0  0  0  0
    1.9184    4.1684   -2.9012 H   0  0  0  0  0  0  0  0  0  0  0  0
    4.5679    1.1620   -0.4301 H   0  0  0  0  0  0  0  0  0  0  0  0
   -0.4889    4.7075   -3.0187 H   0  0  0  0  0  0  0  0  0  0  0  0
    4.1889   -0.2539    1.5010 H   0  0  0  0  0  0  0  0  0  0  0  0
   -2.7737    4.1373   -2.5352 H   0  0  0  0  0  0  0  0  0  0  0  0
    2.6892   -1.1411    3.2465 H   0  0  0  0  0  0  0  0  0  0  0  0
   -4.4653    2.6010   -1.5688 H   0  0  0  0  0  0  0  0  0  0  0  0
   -3.9782    0.3442   -0.5381 O   0  0  0  0  0  0  0  0  0  0  0  0
   -3.6277   -0.8539   -0.0094 C   0  0  0  0  0  0  0  0  0  0  0  0
   -2.2836   -1.2569   -0.0512 C   0  0  0  0  0  0  0  0  0  0  0  0
   -1.3076   -0.4274   -0.5124 N   0  0  0  0  0  0  0  0  0  0  0  0
   -1.8803   -2.5404    0.4266 C   0  0  0  0  0  0  0  0  0  0  0  0
   -4.5708   -1.7085    0.5258 C   0  0  0  0  0  0  0  0  0  0  0  0
   -4.1720   -2.9530    1.0200 C   0  0  0  0  0  0  0  0  0  0  0  0
   -2.8618   -3.3734    0.9790 C   0  0  0  0  0  0  0  0  0  0  0  0
   -0.5900   -2.9006    0.3407 N   0  0  0  0  0  0  0  0  0  0  0  0
    0.2326   -2.0855   -0.2824 C   0  0  0  0  0  0  0  0  0  0  0  0
   -0.1004   -0.8422   -0.6942 N   0  0  0  0  0  0  0  0  0  0  0  0
    0.3204   -0.4493    3.2841 H   0  0  0  0  0  0  0  0  0  0  0  0
   -0.5890    0.9438    1.5005 H   0  0  0  0  0  0  0  0  0  0  0  0
    1.6160   -2.4701   -0.4973 C   0  0  0  0  0  0  0  0  0  0  0  0
    2.1454   -3.5668    0.1867 C   0  0  0  0  0  0  0  0  0  0  0  0
    3.4677   -3.9176    0.0031 C   0  0  0  0  0  0  0  0  0  0  0  0
    4.2670   -3.1891   -0.8663 C   0  0  0  0  0  0  0  0  0  0  0  0
    3.7412   -2.1078   -1.5585 C   0  0  0  0  0  0  0  0  0  0  0  0
    2.4225   -1.7432   -1.3761 C   0  0  0  0  0  0  0  0  0  0  0  0
    2.0002   -0.9107   -1.9167 H   0  0  0  0  0  0  0  0  0  0  0  0
    4.3621   -1.5512   -2.2437 H   0  0  0  0  0  0  0  0  0  0  0  0
    5.2998   -3.4684   -1.0092 H   0  0  0  0  0  0  0  0  0  0  0  0
    3.8792   -4.7619    0.5342 H   0  0  0  0  0  0  0  0  0  0  0  0
    1.5081   -4.1202    0.8578 H   0  0  0  0  0  0  0  0  0  0  0  0
   -2.5638   -4.3416    1.3443 H   0  0  0  0  0  0  0  0  0  0  0  0
   -4.9236   -3.6035    1.4390 H   0  0  0  0  0  0  0  0  0  0  0  0
   -5.6036   -1.4039    0.5516 H   0  0  0  0  0  0  0  0  0  0  0  0
  1  2  1  0  0  0  0
  1  3  1  0  0  0  0
  1  4  2  0  0  0  0
  2  5  1  0  0  0  0
  2 11  2  0  0  0  0
  3  6  1  0  0  0  0
  3 12  2  0  0  0  0
  4  7  1  0  0  0  0
  4  8  1  0  0  0  0
  5  9  1  0  0  0  0
  5 13  2  0  0  0  0
  6 10  1  0  0  0  0
  6 14  2  0  0  0  0
  7  9  2  0  0  0  0
  7 19  1  0  0  0  0
  8 10  2  0  0  0  0
  8 20  1  0  0  0  0
  9 21  1  0  0  0  0
 10 22  1  0  0  0  0
 11 15  1  0  0  0  0
 12 16  1  0  0  0  0
 13 17  1  0  0  0  0
 13 23  1  0  0  0  0
 14 18  1  0  0  0  0
 14 24  1  0  0  0  0
 15 17  2  0  0  0  0
 16 18  2  0  0  0  0
 17 25  1  0  0  0  0
 18 26  1  0  0  0  0
 27 28  1  0  0  0  0
 28 29  2  0  0  0  0
 29 30  1  0  0  0  0
 30 12  1  0  0  0  0
 29 31  1  0  0  0  0
 28 32  1  0  0  0  0
 32 33  2  0  0  0  0
 33 34  1  0  0  0  0
 34 31  2  0  0  0  0
 16 27  1  0  0  0  0
 31 35  1  0  0  0  0
 35 36  1  0  0  0  0
 36 37  2  0  0  0  0
 37 30  1  0  0  0  0
 15 38  1  0  0  0  0
 11 39  1  0  0  0  0
 36 40  1  0  0  0  0
 40 41  2  0  0  0  0
 41 42  1  0  0  0  0
 42 43  2  0  0  0  0
 43 44  1  0  0  0  0
 44 45  2  0  0  0  0
 45 40  1  0  0  0  0
 45 46  1  0  0  0  0
 44 47  1  0  0  0  0
 43 48  1  0  0  0  0
 42 49  1  0  0  0  0
 41 50  1  0  0  0  0
 34 51  1  0  0  0  0
 33 52  1  0  0  0  0
 32 53  1  0  0  0  0
M  CHG  1   1   1
M  END
