 energy: -88.414793489536 gnorm: 0.000408028607 xtb: 6.6.1 (8d0f1dd)
          11012414003D

 53 60  0     0  0            999 V2000
    0.7169    1.8056   -0.7414 C   0  0  0  0  0  0  0  0  0  0  0  0
    1.1887    1.0399    0.3778 C   0  0  0  0  0  0  0  0  0  0  0  0
   -0.6593    1.8963   -1.1151 C   0  0  0  0  0  0  0  0  0  0  0  0
    1.6553    2.5535   -1.4754 C   0  0  0  0  0  0  0  0  0  0  0  0
    2.5702    0.7444    0.4741 C   0  0  0  0  0  0  0  0  0  0  0  0
   -1.0919    3.0293   -1.8537 C   0  0  0  0  0  0  0  0  0  0  0  0
    3.0396    2.2798   -1.3233 C   0  0  0  0  0  0  0  0  0  0  0  0
    1.2050    3.5807   -2.3436 C   0  0  0  0  0  0  0  0  0  0  0  0
    3.4741    1.3445   -0.4415 C   0  0  0  0  0  0  0  0  0  0  0  0
   -0.1164    3.8743   -2.4448 C   0  0  0  0  0  0  0  0  0  0  0  0
    0.3576    0.6548    1.4463 C   0  0  0  0  0  0  0  0  0  0  0  0
   -1.6283    0.8931   -0.8342 C   0  0  0  0  0  0  0  0  0  0  0  0
    3.0254   -0.0867    1.5116 C   0  0  0  0  0  0  0  0  0  0  0  0
   -2.4647    3.2692   -2.0183 C   0  0  0  0  0  0  0  0  0  0  0  0
    0.8317   -0.1253    2.4683 C   0  0  0  0  0  0  0  0  0  0  0  0
   -2.9926    1.1950   -0.9454 C   0  0  0  0  0  0  0  0  0  0  0  0
    2.1662   -0.5419    2.4760 C   0  0  0  0  0  0  0  0  0  0  0  0
   -3.4015    2.4037   -1.5034 C   0  0  0  0  0  0  0  0  0  0  0  0
    3.7371    2.8181   -1.9492 H   0  0  0  0  0  0  0  0  0  0  0  0
    1.9433    4.1646   -2.8744 H   0  0  0  0  0  0  0  0  0  0  0  0
    4.5214    1.0890   -0.3717 H   0  0  0  0  0  0  0  0  0  0  0  0
   -0.4557    4.7230   -3.0204 H   0  0  0  0  0  0  0  0  0  0  0  0
    4.0735   -0.3476    1.5441 H   0  0  0  0  0  0  0  0  0  0  0  0
   -2.7822    4.1509   -2.5532 H   0  0  0  0  0  0  0  0  0  0  0  0
    2.5198   -1.1890    3.2646 H   0  0  0  0  0  0  0  0  0  0  0  0
   -4.4587    2.5991   -1.5809 H   0  0  0  0  0  0  0  0  0  0  0  0
   -3.9797    0.3296   -0.5503 O   0  0  0  0  0  0  0  0  0  0  0  0
   -3.5874   -0.8637   -0.0023 C   0  0  0  0  0  0  0  0  0  0  0  0
   -2.2554   -1.2586   -0.0494 C   0  0  0  0  0  0  0  0  0  0  0  0
   -1.2880   -0.4180   -0.5690 N   0  0  0  0  0  0  0  0  0  0  0  0
   -1.8283   -2.5097    0.4539 C   0  0  0  0  0  0  0  0  0  0  0  0
   -4.5230   -1.7035    0.5790 C   0  0  0  0  0  0  0  0  0  0  0  0
   -4.1103   -2.9267    1.0981 C   0  0  0  0  0  0  0  0  0  0  0  0
   -2.7948   -3.3359    1.0399 C   0  0  0  0  0  0  0  0  0  0  0  0
   -0.5297   -2.8790    0.3544 N   0  0  0  0  0  0  0  0  0  0  0  0
    0.2643   -2.0611   -0.3277 C   0  0  0  0  0  0  0  0  0  0  0  0
   -0.0547   -0.8649   -0.7969 N   0  0  0  0  0  0  0  0  0  0  0  0
    0.1741   -0.4190    3.2736 H   0  0  0  0  0  0  0  0  0  0  0  0
   -0.6668    1.0005    1.4728 H   0  0  0  0  0  0  0  0  0  0  0  0
    1.6542   -2.4651   -0.5521 C   0  0  0  0  0  0  0  0  0  0  0  0
    2.1882   -3.5381    0.1560 C   0  0  0  0  0  0  0  0  0  0  0  0
    3.5115   -3.8934   -0.0205 C   0  0  0  0  0  0  0  0  0  0  0  0
    4.3100   -3.1866   -0.9057 C   0  0  0  0  0  0  0  0  0  0  0  0
    3.7794   -2.1237   -1.6196 C   0  0  0  0  0  0  0  0  0  0  0  0
    2.4581   -1.7612   -1.4460 C   0  0  0  0  0  0  0  0  0  0  0  0
    2.0331   -0.9355   -1.9943 H   0  0  0  0  0  0  0  0  0  0  0  0
    4.4000   -1.5751   -2.3134 H   0  0  0  0  0  0  0  0  0  0  0  0
    5.3450   -3.4660   -1.0414 H   0  0  0  0  0  0  0  0  0  0  0  0
    3.9253   -4.7237    0.5331 H   0  0  0  0  0  0  0  0  0  0  0  0
    1.5502   -4.0725    0.8419 H   0  0  0  0  0  0  0  0  0  0  0  0
   -2.4836   -4.2915    1.4278 H   0  0  0  0  0  0  0  0  0  0  0  0
   -4.8471   -3.5719    1.5520 H   0  0  0  0  0  0  0  0  0  0  0  0
   -5.5549   -1.3964    0.6166 H   0  0  0  0  0  0  0  0  0  0  0  0
  1  2  1  0  0  0  0
  1  3  1  0  0  0  0
  1  4  2  0  0  0  0
  2  5  1  0  0  0  0
  2 11  2  0  0  0  0
  3  6  1  0  0  0  0
  3 12  2  0  0  0  0
  4  7  1  0  0  0  0
  4  8  1  0  0  0  0
  5  9  1  0  0  0  0
  5 13  2  0  0  0  0
  6 10  1  0  0  0  0
  6 14  2  0  0  0  0
  7  9  2  0  0  0  0
  7 19  1  0  0  0  0
  8 10  2  0  0  0  0
  8 20  1  0  0  0  0
  9 21  1  0  0  0  0
 10 22  1  0  0  0  0
 11 15  1  0  0  0  0
 12 16  1  0  0  0  0
 13 17  1  0  0  0  0
 13 23  1  0  0  0  0
 14 18  1  0  0  0  0
 14 24  1  0  0  0  0
 15 17  2  0  0  0  0
 16 18  2  0  0  0  0
 17 25  1  0  0  0  0
 18 26  1  0  0  0  0
 27 28  1  0  0  0  0
 28 29  2  0  0  0  0
 29 30  1  0  0  0  0
 30 12  1  0  0  0  0
 29 31  1  0  0  0  0
 28 32  1  0  0  0  0
 32 33  2  0  0  0  0
 33 34  1  0  0  0  0
 34 31  2  0  0  0  0
 16 27  1  0  0  0  0
 31 35  1  0  0  0  0
 35 36  1  0  0  0  0
 36 37  2  0  0  0  0
 37 30  1  0  0  0  0
 15 38  1  0  0  0  0
 11 39  1  0  0  0  0
 36 40  1  0  0  0  0
 40 41  2  0  0  0  0
 41 42  1  0  0  0  0
 42 43  2  0  0  0  0
 43 44  1  0  0  0  0
 44 45  2  0  0  0  0
 45 40  1  0  0  0  0
 45 46  1  0  0  0  0
 44 47  1  0  0  0  0
 43 48  1  0  0  0  0
 42 49  1  0  0  0  0
 41 50  1  0  0  0  0
 34 51  1  0  0  0  0
 33 52  1  0  0  0  0
 32 53  1  0  0  0  0
M  END
