 energy: -176.871665863636 gnorm: 0.000201277513 xtb: 6.6.1 (8d0f1dd)
          11012414443D

106120  0     0  0            999 V2000
   -2.4913   -0.7812    2.8313 C   0  0  0  0  0  0  0  0  0  0  0  0
   -1.9689    0.5269    2.5421 C   0  0  0  0  0  0  0  0  0  0  0  0
   -1.7019   -1.9746    2.8483 C   0  0  0  0  0  0  0  0  0  0  0  0
   -3.8566   -0.8842    3.1696 C   0  0  0  0  0  0  0  0  0  0  0  0
   -2.8680    1.5854    2.2648 C   0  0  0  0  0  0  0  0  0  0  0  0
   -2.1737   -3.0924    3.5875 C   0  0  0  0  0  0  0  0  0  0  0  0
   -4.7253    0.2159    2.9520 C   0  0  0  0  0  0  0  0  0  0  0  0
   -4.3564   -2.0808    3.7380 C   0  0  0  0  0  0  0  0  0  0  0  0
   -4.2602    1.3851    2.4473 C   0  0  0  0  0  0  0  0  0  0  0  0
   -3.5217   -3.1134    4.0236 C   0  0  0  0  0  0  0  0  0  0  0  0
   -0.5980    0.8377    2.5967 C   0  0  0  0  0  0  0  0  0  0  0  0
   -0.4836   -2.1554    2.1267 C   0  0  0  0  0  0  0  0  0  0  0  0
   -2.3636    2.8316    1.8572 C   0  0  0  0  0  0  0  0  0  0  0  0
   -1.3102   -4.1623    3.8747 C   0  0  0  0  0  0  0  0  0  0  0  0
   -0.1284    2.0665    2.2148 C   0  0  0  0  0  0  0  0  0  0  0  0
    0.3705   -3.2226    2.4603 C   0  0  0  0  0  0  0  0  0  0  0  0
   -1.0152    3.0576    1.7886 C   0  0  0  0  0  0  0  0  0  0  0  0
   -0.0374   -4.2042    3.3518 C   0  0  0  0  0  0  0  0  0  0  0  0
   -5.7735    0.0860    3.1801 H   0  0  0  0  0  0  0  0  0  0  0  0
   -5.4057   -2.1330    3.9891 H   0  0  0  0  0  0  0  0  0  0  0  0
   -4.9311    2.2017    2.2238 H   0  0  0  0  0  0  0  0  0  0  0  0
   -3.8792   -3.9915    4.5391 H   0  0  0  0  0  0  0  0  0  0  0  0
   -3.0652    3.6118    1.5991 H   0  0  0  0  0  0  0  0  0  0  0  0
   -1.6725   -4.9751    4.4828 H   0  0  0  0  0  0  0  0  0  0  0  0
   -0.6342    4.0084    1.4479 H   0  0  0  0  0  0  0  0  0  0  0  0
    0.6464   -5.0042    3.5806 H   0  0  0  0  0  0  0  0  0  0  0  0
    1.6141   -3.3740    1.9093 O   0  0  0  0  0  0  0  0  0  0  0  0
    2.0329   -2.4192    1.0268 C   0  0  0  0  0  0  0  0  0  0  0  0
    1.1403   -1.4713    0.5388 C   0  0  0  0  0  0  0  0  0  0  0  0
   -0.1580   -1.4154    1.0167 N   0  0  0  0  0  0  0  0  0  0  0  0
    1.5205   -0.5171   -0.4322 C   0  0  0  0  0  0  0  0  0  0  0  0
    3.3425   -2.4114    0.5765 C   0  0  0  0  0  0  0  0  0  0  0  0
    3.7338   -1.4621   -0.3623 C   0  0  0  0  0  0  0  0  0  0  0  0
    2.8507   -0.5325   -0.8692 C   0  0  0  0  0  0  0  0  0  0  0  0
    0.6146    0.3654   -0.9166 N   0  0  0  0  0  0  0  0  0  0  0  0
   -0.6359    0.2091   -0.5036 C   0  0  0  0  0  0  0  0  0  0  0  0
   -1.0600   -0.6379    0.4241 N   0  0  0  0  0  0  0  0  0  0  0  0
    0.9318    2.2701    2.2436 H   0  0  0  0  0  0  0  0  0  0  0  0
    0.0923    0.0994    2.9745 H   0  0  0  0  0  0  0  0  0  0  0  0
   -1.6681    1.0864   -1.0612 C   0  0  0  0  0  0  0  0  0  0  0  0
   -1.2991    2.2010   -1.8093 C   0  0  0  0  0  0  0  0  0  0  0  0
   -2.2659    3.0587   -2.2970 C   0  0  0  0  0  0  0  0  0  0  0  0
   -3.6063    2.8110   -2.0463 C   0  0  0  0  0  0  0  0  0  0  0  0
   -3.9784    1.6974   -1.3100 C   0  0  0  0  0  0  0  0  0  0  0  0
   -3.0168    0.8367   -0.8180 C   0  0  0  0  0  0  0  0  0  0  0  0
   -3.2934   -0.0328   -0.2431 H   0  0  0  0  0  0  0  0  0  0  0  0
   -5.0234    1.5012   -1.1179 H   0  0  0  0  0  0  0  0  0  0  0  0
   -4.3608    3.4842   -2.4273 H   0  0  0  0  0  0  0  0  0  0  0  0
   -1.9769    3.9252   -2.8740 H   0  0  0  0  0  0  0  0  0  0  0  0
   -0.2503    2.3767   -1.9890 H   0  0  0  0  0  0  0  0  0  0  0  0
    3.1533    0.1873   -1.6114 H   0  0  0  0  0  0  0  0  0  0  0  0
    4.7569   -1.4641   -0.7069 H   0  0  0  0  0  0  0  0  0  0  0  0
    4.0325   -3.1447    0.9592 H   0  0  0  0  0  0  0  0  0  0  0  0
    0.6003    2.0568    5.7932 C   0  0  0  0  0  0  0  0  0  0  0  0
    1.1381    1.0951    6.7143 C   0  0  0  0  0  0  0  0  0  0  0  0
   -0.7975    2.2179    5.5365 C   0  0  0  0  0  0  0  0  0  0  0  0
    1.4975    2.9380    5.1638 C   0  0  0  0  0  0  0  0  0  0  0  0
    2.5207    0.7919    6.6631 C   0  0  0  0  0  0  0  0  0  0  0  0
   -1.2614    3.4747    5.0661 C   0  0  0  0  0  0  0  0  0  0  0  0
    2.8857    2.6422    5.1648 C   0  0  0  0  0  0  0  0  0  0  0  0
    1.0054    4.1214    4.5566 C   0  0  0  0  0  0  0  0  0  0  0  0
    3.3684    1.5550    5.8175 C   0  0  0  0  0  0  0  0  0  0  0  0
   -0.3161    4.4252    4.6014 C   0  0  0  0  0  0  0  0  0  0  0  0
    0.3788    0.5192    7.7504 C   0  0  0  0  0  0  0  0  0  0  0  0
   -1.7612    1.1859    5.6980 C   0  0  0  0  0  0  0  0  0  0  0  0
    3.0384   -0.2116    7.4997 C   0  0  0  0  0  0  0  0  0  0  0  0
   -2.6374    3.7424    5.0323 C   0  0  0  0  0  0  0  0  0  0  0  0
    0.9150   -0.4294    8.5811 C   0  0  0  0  0  0  0  0  0  0  0  0
   -3.1215    1.5130    5.7528 C   0  0  0  0  0  0  0  0  0  0  0  0
    2.2433   -0.8359    8.4233 C   0  0  0  0  0  0  0  0  0  0  0  0
   -3.5501    2.8008    5.4440 C   0  0  0  0  0  0  0  0  0  0  0  0
    3.5462    3.2940    4.6102 H   0  0  0  0  0  0  0  0  0  0  0  0
    1.7159    4.8044    4.1131 H   0  0  0  0  0  0  0  0  0  0  0  0
    4.4152    1.2928    5.7659 H   0  0  0  0  0  0  0  0  0  0  0  0
   -0.6822    5.3734    4.2366 H   0  0  0  0  0  0  0  0  0  0  0  0
    4.0846   -0.4686    7.4139 H   0  0  0  0  0  0  0  0  0  0  0  0
   -2.9747    4.7083    4.6899 H   0  0  0  0  0  0  0  0  0  0  0  0
    2.6450   -1.6113    9.0582 H   0  0  0  0  0  0  0  0  0  0  0  0
   -4.6070    3.0085    5.4788 H   0  0  0  0  0  0  0  0  0  0  0  0
   -4.0895    0.6039    6.0936 O   0  0  0  0  0  0  0  0  0  0  0  0
   -3.6695   -0.6477    6.4565 C   0  0  0  0  0  0  0  0  0  0  0  0
   -2.3642   -1.0521    6.2070 C   0  0  0  0  0  0  0  0  0  0  0  0
   -1.4338   -0.1567    5.7110 N   0  0  0  0  0  0  0  0  0  0  0  0
   -1.9303   -2.3687    6.4715 C   0  0  0  0  0  0  0  0  0  0  0  0
   -4.5541   -1.5332    7.0503 C   0  0  0  0  0  0  0  0  0  0  0  0
   -4.1217   -2.8154    7.3676 C   0  0  0  0  0  0  0  0  0  0  0  0
   -2.8429   -3.2418    7.0747 C   0  0  0  0  0  0  0  0  0  0  0  0
   -0.6759   -2.7598    6.1343 N   0  0  0  0  0  0  0  0  0  0  0  0
    0.0882   -1.8388    5.5473 C   0  0  0  0  0  0  0  0  0  0  0  0
   -0.2341   -0.5796    5.3139 N   0  0  0  0  0  0  0  0  0  0  0  0
    0.3114   -0.8639    9.3648 H   0  0  0  0  0  0  0  0  0  0  0  0
   -0.6375    0.8525    7.9106 H   0  0  0  0  0  0  0  0  0  0  0  0
    1.4534   -2.2189    5.1720 C   0  0  0  0  0  0  0  0  0  0  0  0
    1.9784   -3.4280    5.6216 C   0  0  0  0  0  0  0  0  0  0  0  0
    3.2719   -3.7879    5.2981 C   0  0  0  0  0  0  0  0  0  0  0  0
    4.0560   -2.9482    4.5233 C   0  0  0  0  0  0  0  0  0  0  0  0
    3.5429   -1.7402    4.0798 C   0  0  0  0  0  0  0  0  0  0  0  0
    2.2520   -1.3733    4.4053 C   0  0  0  0  0  0  0  0  0  0  0  0
    1.8540   -0.4275    4.0726 H   0  0  0  0  0  0  0  0  0  0  0  0
    4.1510   -1.0816    3.4759 H   0  0  0  0  0  0  0  0  0  0  0  0
    5.0662   -3.2336    4.2674 H   0  0  0  0  0  0  0  0  0  0  0  0
    3.6736   -4.7276    5.6492 H   0  0  0  0  0  0  0  0  0  0  0  0
    1.3513   -4.0659    6.2239 H   0  0  0  0  0  0  0  0  0  0  0  0
   -2.5206   -4.2461    7.2949 H   0  0  0  0  0  0  0  0  0  0  0  0
   -4.8142   -3.4960    7.8396 H   0  0  0  0  0  0  0  0  0  0  0  0
   -5.5629   -1.2134    7.2520 H   0  0  0  0  0  0  0  0  0  0  0  0
  1  2  1  0  0  0  0
  1  3  1  0  0  0  0
  1  4  2  0  0  0  0
  2  5  1  0  0  0  0
  2 11  2  0  0  0  0
  3  6  1  0  0  0  0
  3 12  2  0  0  0  0
  4  7  1  0  0  0  0
  4  8  1  0  0  0  0
  5  9  1  0  0  0  0
  5 13  2  0  0  0  0
  6 10  1  0  0  0  0
  6 14  2  0  0  0  0
  7  9  2  0  0  0  0
  7 19  1  0  0  0  0
  8 10  2  0  0  0  0
  8 20  1  0  0  0  0
  9 21  1  0  0  0  0
 10 22  1  0  0  0  0
 11 15  1  0  0  0  0
 11 39  1  0  0  0  0
 12 16  1  0  0  0  0
 13 17  1  0  0  0  0
 13 23  1  0  0  0  0
 14 18  1  0  0  0  0
 14 24  1  0  0  0  0
 15 17  2  0  0  0  0
 15 38  1  0  0  0  0
 16 18  2  0  0  0  0
 16 27  1  0  0  0  0
 17 25  1  0  0  0  0
 18 26  1  0  0  0  0
 27 28  1  0  0  0  0
 28 29  2  0  0  0  0
 28 32  1  0  0  0  0
 29 30  1  0  0  0  0
 29 31  1  0  0  0  0
 30 12  1  0  0  0  0
 31 35  1  0  0  0  0
 32 33  2  0  0  0  0
 32 53  1  0  0  0  0
 33 34  1  0  0  0  0
 33 52  1  0  0  0  0
 34 31  2  0  0  0  0
 34 51  1  0  0  0  0
 35 36  1  0  0  0  0
 36 37  2  0  0  0  0
 36 40  1  0  0  0  0
 37 30  1  0  0  0  0
 40 41  2  0  0  0  0
 41 42  1  0  0  0  0
 41 50  1  0  0  0  0
 42 43  2  0  0  0  0
 42 49  1  0  0  0  0
 43 44  1  0  0  0  0
 43 48  1  0  0  0  0
 44 45  2  0  0  0  0
 44 47  1  0  0  0  0
 45 40  1  0  0  0  0
 45 46  1  0  0  0  0
 54 55  1  0  0  0  0
 54 56  1  0  0  0  0
 54 57  2  0  0  0  0
 55 58  1  0  0  0  0
 55 64  2  0  0  0  0
 56 59  1  0  0  0  0
 56 65  2  0  0  0  0
 57 60  1  0  0  0  0
 57 61  1  0  0  0  0
 58 62  1  0  0  0  0
 58 66  2  0  0  0  0
 59 63  1  0  0  0  0
 59 67  2  0  0  0  0
 60 62  2  0  0  0  0
 60 72  1  0  0  0  0
 61 63  2  0  0  0  0
 61 73  1  0  0  0  0
 62 74  1  0  0  0  0
 63 75  1  0  0  0  0
 64 68  1  0  0  0  0
 64 92  1  0  0  0  0
 65 69  1  0  0  0  0
 66 70  1  0  0  0  0
 66 76  1  0  0  0  0
 67 71  1  0  0  0  0
 67 77  1  0  0  0  0
 68 70  2  0  0  0  0
 68 91  1  0  0  0  0
 69 71  2  0  0  0  0
 69 80  1  0  0  0  0
 70 78  1  0  0  0  0
 71 79  1  0  0  0  0
 80 81  1  0  0  0  0
 81 82  2  0  0  0  0
 81 85  1  0  0  0  0
 82 83  1  0  0  0  0
 82 84  1  0  0  0  0
 83 65  1  0  0  0  0
 84 88  1  0  0  0  0
 85 86  2  0  0  0  0
 85106  1  0  0  0  0
 86 87  1  0  0  0  0
 86105  1  0  0  0  0
 87 84  2  0  0  0  0
 87104  1  0  0  0  0
 88 89  1  0  0  0  0
 89 90  2  0  0  0  0
 89 93  1  0  0  0  0
 90 83  1  0  0  0  0
 93 94  2  0  0  0  0
 94 95  1  0  0  0  0
 94103  1  0  0  0  0
 95 96  2  0  0  0  0
 95102  1  0  0  0  0
 96 97  1  0  0  0  0
 96101  1  0  0  0  0
 97 98  2  0  0  0  0
 97100  1  0  0  0  0
 98 93  1  0  0  0  0
 98 99  1  0  0  0  0
M  CHG  1   1   0
M  END
