 xtb: 6.7.1 (edcfbbe)
          02062516423D

 67 72  0     0  0            999 V2000
   -1.0520    1.8898    0.0402 C   0  0  0  0  0  0  0  0  0  0  0  0
   -1.0913    0.5084    0.0452 C   0  0  0  0  0  0  0  0  0  0  0  0
    0.1169   -0.1951    0.0872 C   0  0  0  0  0  0  0  0  0  0  0  0
    1.3822    0.4495    0.1236 C   0  0  0  0  0  0  0  0  0  0  0  0
    1.3676    1.8574    0.1187 C   0  0  0  0  0  0  0  0  0  0  0  0
    0.1804    2.5660    0.0779 C   0  0  0  0  0  0  0  0  0  0  0  0
    0.0917   -1.5966    0.0930 C   0  0  0  0  0  0  0  0  0  0  0  0
    1.2742   -2.3127    0.1312 C   0  0  0  0  0  0  0  0  0  0  0  0
    2.4954   -1.5866    0.1624 C   0  0  0  0  0  0  0  0  0  0  0  0
    2.5310   -0.2471    0.1598 N   0  0  0  0  0  0  0  0  0  0  0  0
   -1.1375   -2.2689    0.0570 C   0  0  0  0  0  0  0  0  0  0  0  0
   -1.1211   -3.6889    0.0635 C   0  0  0  0  0  0  0  0  0  0  0  0
    0.0295   -4.3834    0.1017 N   0  0  0  0  0  0  0  0  0  0  0  0
    1.1982   -3.7309    0.1334 C   0  0  0  0  0  0  0  0  0  0  0  0
    2.4267   -4.4276    0.1674 C   0  0  0  0  0  0  0  0  0  0  0  0
    3.6415   -3.7509    0.1940 C   0  0  0  0  0  0  0  0  0  0  0  0
    3.6761   -2.3554    0.1933 C   0  0  0  0  0  0  0  0  0  0  0  0
   -2.3213   -1.5249    0.0150 C   0  0  0  0  0  0  0  0  0  0  0  0
   -3.5259   -2.2010   -0.0217 C   0  0  0  0  0  0  0  0  0  0  0  0
   -3.5524   -3.6070   -0.0160 C   0  0  0  0  0  0  0  0  0  0  0  0
   -2.3739   -4.3299    0.0262 C   0  0  0  0  0  0  0  0  0  0  0  0
    0.2416    4.0885    0.0776 C   0  0  0  0  0  0  0  0  0  0  0  0
   -4.8717   -4.3684   -0.0544 C   0  0  0  0  0  0  0  0  0  0  0  0
    4.9700   -4.4977    0.2215 C   0  0  0  0  0  0  0  0  0  0  0  0
   -6.0944   -3.4486   -0.1110 C   0  0  0  0  0  0  0  0  0  0  0  0
   -4.9835   -5.2312    1.2106 C   0  0  0  0  0  0  0  0  0  0  0  0
   -4.8939   -5.2654   -1.3001 C   0  0  0  0  0  0  0  0  0  0  0  0
    5.7829   -4.1104   -1.0220 C   0  0  0  0  0  0  0  0  0  0  0  0
    5.7374   -4.1050    1.4918 C   0  0  0  0  0  0  0  0  0  0  0  0
    4.7981   -6.0189    0.2212 C   0  0  0  0  0  0  0  0  0  0  0  0
   -1.1405    4.7452    0.0227 C   0  0  0  0  0  0  0  0  0  0  0  0
    0.9399    4.5567    1.3622 C   0  0  0  0  0  0  0  0  0  0  0  0
    1.0382    4.5556   -1.1488 C   0  0  0  0  0  0  0  0  0  0  0  0
    2.3203    2.3596    0.1479 H   0  0  0  0  0  0  0  0  0  0  0  0
   -1.9853    2.4236    0.0072 H   0  0  0  0  0  0  0  0  0  0  0  0
    4.6117   -1.8206    0.2146 H   0  0  0  0  0  0  0  0  0  0  0  0
    2.3757   -5.5026    0.1695 H   0  0  0  0  0  0  0  0  0  0  0  0
   -2.3758   -5.4072    0.0314 H   0  0  0  0  0  0  0  0  0  0  0  0
   -4.4318   -1.6218   -0.0545 H   0  0  0  0  0  0  0  0  0  0  0  0
    0.5611    4.2064   -2.0621 H   0  0  0  0  0  0  0  0  0  0  0  0
    1.0797    5.6424   -1.1749 H   0  0  0  0  0  0  0  0  0  0  0  0
    2.0555    4.1760   -1.1296 H   0  0  0  0  0  0  0  0  0  0  0  0
    0.9842    5.6433    1.3884 H   0  0  0  0  0  0  0  0  0  0  0  0
    1.9534    4.1720    1.4251 H   0  0  0  0  0  0  0  0  0  0  0  0
    0.3898    4.2125    2.2356 H   0  0  0  0  0  0  0  0  0  0  0  0
   -1.7391    4.4752    0.8894 H   0  0  0  0  0  0  0  0  0  0  0  0
   -1.0242    5.8271    0.0212 H   0  0  0  0  0  0  0  0  0  0  0  0
   -1.6731    4.4656   -0.8832 H   0  0  0  0  0  0  0  0  0  0  0  0
    5.9872   -3.0436   -1.0491 H   0  0  0  0  0  0  0  0  0  0  0  0
    5.2367   -4.3760   -1.9252 H   0  0  0  0  0  0  0  0  0  0  0  0
    6.7335   -4.6394   -1.0257 H   0  0  0  0  0  0  0  0  0  0  0  0
    4.2811   -6.3555   -0.6743 H   0  0  0  0  0  0  0  0  0  0  0  0
    5.7781   -6.4915    0.2396 H   0  0  0  0  0  0  0  0  0  0  0  0
    4.2489   -6.3524    1.0983 H   0  0  0  0  0  0  0  0  0  0  0  0
    5.9509   -3.0404    1.5159 H   0  0  0  0  0  0  0  0  0  0  0  0
    6.6819   -4.6427    1.5380 H   0  0  0  0  0  0  0  0  0  0  0  0
    5.1543   -4.3560    2.3754 H   0  0  0  0  0  0  0  0  0  0  0  0
   -4.7890   -4.6623   -2.1996 H   0  0  0  0  0  0  0  0  0  0  0  0
   -4.0866   -5.9914   -1.2809 H   0  0  0  0  0  0  0  0  0  0  0  0
   -5.8370   -5.8049   -1.3544 H   0  0  0  0  0  0  0  0  0  0  0  0
   -5.9233   -5.7790    1.2069 H   0  0  0  0  0  0  0  0  0  0  0  0
   -4.9542   -4.6025    2.0980 H   0  0  0  0  0  0  0  0  0  0  0  0
   -4.1705   -5.9481    1.2746 H   0  0  0  0  0  0  0  0  0  0  0  0
   -6.1476   -2.8102    0.7676 H   0  0  0  0  0  0  0  0  0  0  0  0
   -6.0796   -2.8294   -1.0048 H   0  0  0  0  0  0  0  0  0  0  0  0
   -6.9982   -4.0539   -0.1389 H   0  0  0  0  0  0  0  0  0  0  0  0
   -2.2934   -0.1527    0.0096 O   0  0  0  0  0  0  0  0  0  0  0  0
  1  2  4  0  0  0  0
  2  3  4  0  0  0  0
  3  4  4  0  0  0  0
  4  5  4  0  0  0  0
  1  6  4  0  0  0  0
  5  6  4  0  0  0  0
  3  7  4  0  0  0  0
  7  8  4  0  0  0  0
  8  9  1  0  0  0  0
  4 10  4  0  0  0  0
  9 10  4  0  0  0  0
  7 11  4  0  0  0  0
 11 12  4  0  0  0  0
 12 13  4  0  0  0  0
  8 14  1  0  0  0  0
 13 14  4  0  0  0  0
 14 15  4  0  0  0  0
 15 16  4  0  0  0  0
  9 17  4  0  0  0  0
 16 17  4  0  0  0  0
 11 18  4  0  0  0  0
 18 19  4  0  0  0  0
 19 20  4  0  0  0  0
 12 21  4  0  0  0  0
 20 21  4  0  0  0  0
  6 22  1  0  0  0  0
 20 23  1  0  0  0  0
 16 24  1  0  0  0  0
 23 25  1  0  0  0  0
 23 26  1  0  0  0  0
 23 27  1  0  0  0  0
 24 28  1  0  0  0  0
 24 29  1  0  0  0  0
 24 30  1  0  0  0  0
 22 31  1  0  0  0  0
 22 32  1  0  0  0  0
 22 33  1  0  0  0  0
  5 34  1  0  0  0  0
  1 35  1  0  0  0  0
 17 36  1  0  0  0  0
 15 37  1  0  0  0  0
 21 38  1  0  0  0  0
 19 39  1  0  0  0  0
 33 40  1  0  0  0  0
 33 41  1  0  0  0  0
 33 42  1  0  0  0  0
 32 43  1  0  0  0  0
 32 44  1  0  0  0  0
 32 45  1  0  0  0  0
 31 46  1  0  0  0  0
 31 47  1  0  0  0  0
 31 48  1  0  0  0  0
 28 49  1  0  0  0  0
 28 50  1  0  0  0  0
 28 51  1  0  0  0  0
 30 52  1  0  0  0  0
 30 53  1  0  0  0  0
 30 54  1  0  0  0  0
 29 55  1  0  0  0  0
 29 56  1  0  0  0  0
 29 57  1  0  0  0  0
 27 58  1  0  0  0  0
 27 59  1  0  0  0  0
 27 60  1  0  0  0  0
 26 61  1  0  0  0  0
 26 62  1  0  0  0  0
 26 63  1  0  0  0  0
 25 64  1  0  0  0  0
 25 65  1  0  0  0  0
 25 66  1  0  0  0  0
  2 67  1  0  0  0  0
 18 67  1  0  0  0  0
M  END
