xtb: 6.7.1 (edcfbbe)_xtb: 6.7.1 (edcfbbe)
 OpenBabel02062516443D

134144  0  0  0  0  0  0  0  0999 V2000
   -1.0520    1.8898    0.0402 C   0  0  0  0  0  0  0  0  0  0  0  0
   -1.0913    0.5084    0.0452 C   0  0  0  0  0  0  0  0  0  0  0  0
    0.1169   -0.1951    0.0872 C   0  0  0  0  0  0  0  0  0  0  0  0
    1.3822    0.4495    0.1236 C   0  0  0  0  0  0  0  0  0  0  0  0
    1.3676    1.8574    0.1187 C   0  0  0  0  0  0  0  0  0  0  0  0
    0.1804    2.5660    0.0779 C   0  0  0  0  0  0  0  0  0  0  0  0
    0.0917   -1.5966    0.0930 C   0  0  0  0  0  0  0  0  0  0  0  0
    1.2742   -2.3127    0.1312 C   0  0  0  0  0  0  0  0  0  0  0  0
    2.4954   -1.5866    0.1624 C   0  0  0  0  0  0  0  0  0  0  0  0
    2.5310   -0.2471    0.1598 N   0  0  0  0  0  0  0  0  0  0  0  0
   -1.1375   -2.2689    0.0570 C   0  0  2  0  0  0  0  0  0  0  0  0
   -1.1211   -3.6889    0.0635 C   0  0  0  0  0  0  0  0  0  0  0  0
    0.0295   -4.3834    0.1017 N   0  0  0  0  0  0  0  0  0  0  0  0
    1.1982   -3.7309    0.1334 C   0  0  0  0  0  0  0  0  0  0  0  0
    2.4267   -4.4276    0.1674 C   0  0  0  0  0  0  0  0  0  0  0  0
    3.6415   -3.7509    0.1940 C   0  0  0  0  0  0  0  0  0  0  0  0
    3.6761   -2.3554    0.1933 C   0  0  0  0  0  0  0  0  0  0  0  0
   -2.3213   -1.5249    0.0150 C   0  0  0  0  0  0  0  0  0  0  0  0
   -3.5259   -2.2010   -0.0217 C   0  0  0  0  0  0  0  0  0  0  0  0
   -3.5524   -3.6070   -0.0160 C   0  0  0  0  0  0  0  0  0  0  0  0
   -2.3739   -4.3299    0.0262 C   0  0  0  0  0  0  0  0  0  0  0  0
    0.2416    4.0885    0.0776 C   0  0  0  0  0  0  0  0  0  0  0  0
   -4.8717   -4.3684   -0.0544 C   0  0  0  0  0  0  0  0  0  0  0  0
    4.9700   -4.4977    0.2215 C   0  0  0  0  0  0  0  0  0  0  0  0
   -6.0944   -3.4486   -0.1110 C   0  0  0  0  0  0  0  0  0  0  0  0
   -4.9835   -5.2312    1.2106 C   0  0  0  0  0  0  0  0  0  0  0  0
   -4.8939   -5.2654   -1.3001 C   0  0  0  0  0  0  0  0  0  0  0  0
    5.7829   -4.1104   -1.0220 C   0  0  0  0  0  0  0  0  0  0  0  0
    5.7374   -4.1050    1.4918 C   0  0  0  0  0  0  0  0  0  0  0  0
    4.7981   -6.0189    0.2212 C   0  0  0  0  0  0  0  0  0  0  0  0
   -1.1405    4.7452    0.0227 C   0  0  0  0  0  0  0  0  0  0  0  0
    0.9399    4.5567    1.3622 C   0  0  0  0  0  0  0  0  0  0  0  0
    1.0382    4.5556   -1.1488 C   0  0  0  0  0  0  0  0  0  0  0  0
    2.3203    2.3596    0.1479 H   0  0  0  0  0  0  0  0  0  0  0  0
   -1.9853    2.4236    0.0072 H   0  0  0  0  0  0  0  0  0  0  0  0
    4.6117   -1.8206    0.2146 H   0  0  0  0  0  0  0  0  0  0  0  0
    2.3757   -5.5026    0.1695 H   0  0  0  0  0  0  0  0  0  0  0  0
   -2.3758   -5.4072    0.0314 H   0  0  0  0  0  0  0  0  0  0  0  0
   -4.4318   -1.6218   -0.0545 H   0  0  0  0  0  0  0  0  0  0  0  0
    0.5611    4.2064   -2.0621 H   0  0  0  0  0  0  0  0  0  0  0  0
    1.0797    5.6424   -1.1749 H   0  0  0  0  0  0  0  0  0  0  0  0
    2.0555    4.1760   -1.1296 H   0  0  0  0  0  0  0  0  0  0  0  0
    0.9842    5.6433    1.3884 H   0  0  0  0  0  0  0  0  0  0  0  0
    1.9534    4.1720    1.4251 H   0  0  0  0  0  0  0  0  0  0  0  0
    0.3898    4.2125    2.2356 H   0  0  0  0  0  0  0  0  0  0  0  0
   -1.7391    4.4752    0.8894 H   0  0  0  0  0  0  0  0  0  0  0  0
   -1.0242    5.8271    0.0212 H   0  0  0  0  0  0  0  0  0  0  0  0
   -1.6731    4.4656   -0.8832 H   0  0  0  0  0  0  0  0  0  0  0  0
    5.9872   -3.0436   -1.0491 H   0  0  0  0  0  0  0  0  0  0  0  0
    5.2367   -4.3760   -1.9252 H   0  0  0  0  0  0  0  0  0  0  0  0
    6.7335   -4.6394   -1.0257 H   0  0  0  0  0  0  0  0  0  0  0  0
    4.2811   -6.3555   -0.6743 H   0  0  0  0  0  0  0  0  0  0  0  0
    5.7781   -6.4915    0.2396 H   0  0  0  0  0  0  0  0  0  0  0  0
    4.2489   -6.3524    1.0983 H   0  0  0  0  0  0  0  0  0  0  0  0
    5.9509   -3.0404    1.5159 H   0  0  0  0  0  0  0  0  0  0  0  0
    6.6819   -4.6427    1.5380 H   0  0  0  0  0  0  0  0  0  0  0  0
    5.1543   -4.3560    2.3754 H   0  0  0  0  0  0  0  0  0  0  0  0
   -4.7890   -4.6623   -2.1996 H   0  0  0  0  0  0  0  0  0  0  0  0
   -4.0866   -5.9914   -1.2809 H   0  0  0  0  0  0  0  0  0  0  0  0
   -5.8370   -5.8049   -1.3544 H   0  0  0  0  0  0  0  0  0  0  0  0
   -5.9233   -5.7790    1.2069 H   0  0  0  0  0  0  0  0  0  0  0  0
   -4.9542   -4.6025    2.0980 H   0  0  0  0  0  0  0  0  0  0  0  0
   -4.1705   -5.9481    1.2746 H   0  0  0  0  0  0  0  0  0  0  0  0
   -6.1476   -2.8102    0.7676 H   0  0  0  0  0  0  0  0  0  0  0  0
   -6.0796   -2.8294   -1.0048 H   0  0  0  0  0  0  0  0  0  0  0  0
   -6.9982   -4.0539   -0.1389 H   0  0  0  0  0  0  0  0  0  0  0  0
   -2.2934   -0.1527    0.0096 O   0  0  0  0  0  0  0  0  0  0  0  0
   -1.0520    1.8898    4.0402 C   0  0  0  0  0  0  0  0  0  0  0  0
   -1.0913    0.5084    4.0452 C   0  0  0  0  0  0  0  0  0  0  0  0
    0.1169   -0.1951    4.0872 C   0  0  0  0  0  0  0  0  0  0  0  0
    1.3822    0.4495    4.1236 C   0  0  0  0  0  0  0  0  0  0  0  0
    1.3676    1.8574    4.1187 C   0  0  0  0  0  0  0  0  0  0  0  0
    0.1804    2.5660    4.0779 C   0  0  0  0  0  0  0  0  0  0  0  0
    0.0917   -1.5966    4.0930 C   0  0  0  0  0  0  0  0  0  0  0  0
    1.2742   -2.3127    4.1312 C   0  0  0  0  0  0  0  0  0  0  0  0
    2.4954   -1.5866    4.1624 C   0  0  0  0  0  0  0  0  0  0  0  0
    2.5310   -0.2471    4.1598 N   0  0  0  0  0  0  0  0  0  0  0  0
   -1.1375   -2.2689    4.0570 C   0  0  2  0  0  0  0  0  0  0  0  0
   -1.1211   -3.6889    4.0635 C   0  0  0  0  0  0  0  0  0  0  0  0
    0.0295   -4.3834    4.1017 N   0  0  0  0  0  0  0  0  0  0  0  0
    1.1982   -3.7309    4.1334 C   0  0  0  0  0  0  0  0  0  0  0  0
    2.4267   -4.4276    4.1674 C   0  0  0  0  0  0  0  0  0  0  0  0
    3.6415   -3.7509    4.1940 C   0  0  0  0  0  0  0  0  0  0  0  0
    3.6761   -2.3554    4.1933 C   0  0  0  0  0  0  0  0  0  0  0  0
   -2.3213   -1.5249    4.0150 C   0  0  0  0  0  0  0  0  0  0  0  0
   -3.5259   -2.2010    3.9783 C   0  0  0  0  0  0  0  0  0  0  0  0
   -3.5524   -3.6070    3.9840 C   0  0  0  0  0  0  0  0  0  0  0  0
   -2.3739   -4.3299    4.0262 C   0  0  0  0  0  0  0  0  0  0  0  0
    0.2416    4.0885    4.0776 C   0  0  0  0  0  0  0  0  0  0  0  0
   -4.8717   -4.3684    3.9456 C   0  0  0  0  0  0  0  0  0  0  0  0
    4.9700   -4.4977    4.2215 C   0  0  0  0  0  0  0  0  0  0  0  0
   -6.0944   -3.4486    3.8890 C   0  0  0  0  0  0  0  0  0  0  0  0
   -4.9835   -5.2312    5.2106 C   0  0  0  0  0  0  0  0  0  0  0  0
   -4.8939   -5.2654    2.6999 C   0  0  0  0  0  0  0  0  0  0  0  0
    5.7829   -4.1104    2.9780 C   0  0  0  0  0  0  0  0  0  0  0  0
    5.7374   -4.1050    5.4918 C   0  0  0  0  0  0  0  0  0  0  0  0
    4.7981   -6.0189    4.2212 C   0  0  0  0  0  0  0  0  0  0  0  0
   -1.1405    4.7452    4.0227 C   0  0  0  0  0  0  0  0  0  0  0  0
    0.9399    4.5567    5.3622 C   0  0  0  0  0  0  0  0  0  0  0  0
    1.0382    4.5556    2.8512 C   0  0  0  0  0  0  0  0  0  0  0  0
    2.3203    2.3596    4.1479 H   0  0  0  0  0  0  0  0  0  0  0  0
   -1.9853    2.4236    4.0072 H   0  0  0  0  0  0  0  0  0  0  0  0
    4.6117   -1.8206    4.2146 H   0  0  0  0  0  0  0  0  0  0  0  0
    2.3757   -5.5026    4.1695 H   0  0  0  0  0  0  0  0  0  0  0  0
   -2.3758   -5.4072    4.0314 H   0  0  0  0  0  0  0  0  0  0  0  0
   -4.4318   -1.6218    3.9455 H   0  0  0  0  0  0  0  0  0  0  0  0
    0.5611    4.2064    1.9379 H   0  0  0  0  0  0  0  0  0  0  0  0
    1.0797    5.6424    2.8251 H   0  0  0  0  0  0  0  0  0  0  0  0
    2.0555    4.1760    2.8704 H   0  0  0  0  0  0  0  0  0  0  0  0
    0.9842    5.6433    5.3884 H   0  0  0  0  0  0  0  0  0  0  0  0
    1.9534    4.1720    5.4251 H   0  0  0  0  0  0  0  0  0  0  0  0
    0.3898    4.2125    6.2356 H   0  0  0  0  0  0  0  0  0  0  0  0
   -1.7391    4.4752    4.8894 H   0  0  0  0  0  0  0  0  0  0  0  0
   -1.0242    5.8271    4.0212 H   0  0  0  0  0  0  0  0  0  0  0  0
   -1.6731    4.4656    3.1168 H   0  0  0  0  0  0  0  0  0  0  0  0
    5.9872   -3.0436    2.9509 H   0  0  0  0  0  0  0  0  0  0  0  0
    5.2367   -4.3760    2.0748 H   0  0  0  0  0  0  0  0  0  0  0  0
    6.7335   -4.6394    2.9743 H   0  0  0  0  0  0  0  0  0  0  0  0
    4.2811   -6.3555    3.3257 H   0  0  0  0  0  0  0  0  0  0  0  0
    5.7781   -6.4915    4.2396 H   0  0  0  0  0  0  0  0  0  0  0  0
    4.2489   -6.3524    5.0983 H   0  0  0  0  0  0  0  0  0  0  0  0
    5.9509   -3.0404    5.5159 H   0  0  0  0  0  0  0  0  0  0  0  0
    6.6819   -4.6427    5.5380 H   0  0  0  0  0  0  0  0  0  0  0  0
    5.1543   -4.3560    6.3754 H   0  0  0  0  0  0  0  0  0  0  0  0
   -4.7890   -4.6623    1.8004 H   0  0  0  0  0  0  0  0  0  0  0  0
   -4.0866   -5.9914    2.7191 H   0  0  0  0  0  0  0  0  0  0  0  0
   -5.8370   -5.8049    2.6456 H   0  0  0  0  0  0  0  0  0  0  0  0
   -5.9233   -5.7790    5.2069 H   0  0  0  0  0  0  0  0  0  0  0  0
   -4.9542   -4.6025    6.0980 H   0  0  0  0  0  0  0  0  0  0  0  0
   -4.1705   -5.9481    5.2746 H   0  0  0  0  0  0  0  0  0  0  0  0
   -6.1476   -2.8102    4.7676 H   0  0  0  0  0  0  0  0  0  0  0  0
   -6.0796   -2.8294    2.9952 H   0  0  0  0  0  0  0  0  0  0  0  0
   -6.9982   -4.0539    3.8611 H   0  0  0  0  0  0  0  0  0  0  0  0
   -2.2934   -0.1527    4.0096 O   0  0  0  0  0  0  0  0  0  0  0  0
  1  2  2  0  0  0  0
  1  6  1  0  0  0  0
  1 35  1  0  0  0  0
  2  3  1  0  0  0  0
  2 67  1  0  0  0  0
  3  4  2  0  0  0  0
  3  7  1  0  0  0  0
  4  5  1  0  0  0  0
  4 10  1  0  0  0  0
  5  6  2  0  0  0  0
  5 34  1  0  0  0  0
  6 22  1  0  0  0  0
  7  8  2  0  0  0  0
  8  9  1  0  0  0  0
  8 14  1  0  0  0  0
  9 10  2  0  0  0  0
  9 17  1  0  0  0  0
 11  7  1  6  0  0  0
 11 12  1  0  0  0  0
 11 18  1  0  0  0  0
 12 13  2  0  0  0  0
 12 21  1  0  0  0  0
 13 14  1  0  0  0  0
 14 15  2  0  0  0  0
 15 16  1  0  0  0  0
 15 37  1  0  0  0  0
 16 17  2  0  0  0  0
 16 24  1  0  0  0  0
 17 36  1  0  0  0  0
 18 19  2  0  0  0  0
 18 67  1  0  0  0  0
 19 20  1  0  0  0  0
 19 39  1  0  0  0  0
 20 21  2  0  0  0  0
 20 23  1  0  0  0  0
 21 38  1  0  0  0  0
 22 31  1  0  0  0  0
 22 32  1  0  0  0  0
 22 33  1  0  0  0  0
 23 25  1  0  0  0  0
 23 26  1  0  0  0  0
 23 27  1  0  0  0  0
 24 28  1  0  0  0  0
 24 29  1  0  0  0  0
 24 30  1  0  0  0  0
 25 64  1  0  0  0  0
 25 65  1  0  0  0  0
 25 66  1  0  0  0  0
 26 61  1  0  0  0  0
 26 62  1  0  0  0  0
 26 63  1  0  0  0  0
 27 58  1  0  0  0  0
 27 59  1  0  0  0  0
 27 60  1  0  0  0  0
 28 49  1  0  0  0  0
 28 50  1  0  0  0  0
 28 51  1  0  0  0  0
 29 55  1  0  0  0  0
 29 56  1  0  0  0  0
 29 57  1  0  0  0  0
 30 52  1  0  0  0  0
 30 53  1  0  0  0  0
 30 54  1  0  0  0  0
 31 46  1  0  0  0  0
 31 47  1  0  0  0  0
 31 48  1  0  0  0  0
 32 43  1  0  0  0  0
 32 44  1  0  0  0  0
 32 45  1  0  0  0  0
 33 40  1  0  0  0  0
 33 41  1  0  0  0  0
 33 42  1  0  0  0  0
 68 69  2  0  0  0  0
 68 73  1  0  0  0  0
 68102  1  0  0  0  0
 69 70  1  0  0  0  0
 69134  1  0  0  0  0
 70 71  2  0  0  0  0
 70 74  1  0  0  0  0
 71 72  1  0  0  0  0
 71 77  1  0  0  0  0
 72 73  2  0  0  0  0
 72101  1  0  0  0  0
 73 89  1  0  0  0  0
 74 75  2  0  0  0  0
 75 76  1  0  0  0  0
 75 81  1  0  0  0  0
 76 77  2  0  0  0  0
 76 84  1  0  0  0  0
 78 74  1  6  0  0  0
 78 79  1  0  0  0  0
 78 85  1  0  0  0  0
 79 80  2  0  0  0  0
 79 88  1  0  0  0  0
 80 81  1  0  0  0  0
 81 82  2  0  0  0  0
 82 83  1  0  0  0  0
 82104  1  0  0  0  0
 83 84  2  0  0  0  0
 83 91  1  0  0  0  0
 84103  1  0  0  0  0
 85 86  2  0  0  0  0
 85134  1  0  0  0  0
 86 87  1  0  0  0  0
 86106  1  0  0  0  0
 87 88  2  0  0  0  0
 87 90  1  0  0  0  0
 88105  1  0  0  0  0
 89 98  1  0  0  0  0
 89 99  1  0  0  0  0
 89100  1  0  0  0  0
 90 92  1  0  0  0  0
 90 93  1  0  0  0  0
 90 94  1  0  0  0  0
 91 95  1  0  0  0  0
 91 96  1  0  0  0  0
 91 97  1  0  0  0  0
 92131  1  0  0  0  0
 92132  1  0  0  0  0
 92133  1  0  0  0  0
 93128  1  0  0  0  0
 93129  1  0  0  0  0
 93130  1  0  0  0  0
 94125  1  0  0  0  0
 94126  1  0  0  0  0
 94127  1  0  0  0  0
 95116  1  0  0  0  0
 95117  1  0  0  0  0
 95118  1  0  0  0  0
 96122  1  0  0  0  0
 96123  1  0  0  0  0
 96124  1  0  0  0  0
 97119  1  0  0  0  0
 97120  1  0  0  0  0
 97121  1  0  0  0  0
 98113  1  0  0  0  0
 98114  1  0  0  0  0
 98115  1  0  0  0  0
 99110  1  0  0  0  0
 99111  1  0  0  0  0
 99112  1  0  0  0  0
100107  1  0  0  0  0
100108  1  0  0  0  0
100109  1  0  0  0  0
M  END
