 xtb: 6.7.1 (edcfbbe)
          12102414583D

141152  0     0  0            999 V2000
   -1.2271   -2.4619   -1.2641 C   0  0  0  0  0  0  0  0  0  0  0  0
   -1.7767   -1.3905   -0.5691 C   0  0  0  0  0  0  0  0  0  0  0  0
   -2.9716   -0.7766   -1.0741 C   0  0  0  0  0  0  0  0  0  0  0  0
   -3.5481   -1.4036   -2.2159 C   0  0  0  0  0  0  0  0  0  0  0  0
   -2.9335   -2.4710   -2.8771 C   0  0  0  0  0  0  0  0  0  0  0  0
   -1.7517   -3.0056   -2.4332 C   0  0  0  0  0  0  0  0  0  0  0  0
   -3.6835    0.3357   -0.4919 C   0  0  0  0  0  0  0  0  0  0  0  0
   -5.0203    0.5591   -0.8670 C   0  0  0  0  0  0  0  0  0  0  0  0
   -5.6036   -0.0679   -2.0015 C   0  0  0  0  0  0  0  0  0  0  0  0
   -4.8290   -1.0111   -2.7832 C   0  0  0  0  0  0  0  0  0  0  0  0
   -3.1561    1.1929    0.5294 C   0  0  0  0  0  0  0  0  0  0  0  0
   -4.0303    1.9021    1.3915 C   0  0  0  0  0  0  0  0  0  0  0  0
   -5.4425    2.0433    1.1014 C   0  0  0  0  0  0  0  0  0  0  0  0
   -5.8830    1.4311   -0.1403 C   0  0  0  0  0  0  0  0  0  0  0  0
   -7.1874    1.6659   -0.5556 C   0  0  0  0  0  0  0  0  0  0  0  0
   -7.7277    1.0851   -1.6931 C   0  0  0  0  0  0  0  0  0  0  0  0
   -6.9032    0.2122   -2.3926 C   0  0  0  0  0  0  0  0  0  0  0  0
   -1.7659    1.3615    0.7611 C   0  0  0  0  0  0  0  0  0  0  0  0
   -1.3662    1.7955    2.0203 C   0  0  0  0  0  0  0  0  0  0  0  0
   -2.2428    2.3657    2.9448 C   0  0  0  0  0  0  0  0  0  0  0  0
   -3.5564    2.5033    2.5626 C   0  0  0  0  0  0  0  0  0  0  0  0
   -1.1120   -1.0247    0.5781 O   0  0  0  0  0  0  0  0  0  0  0  0
   -0.8549    1.1047   -0.2230 O   0  0  0  0  0  0  0  0  0  0  0  0
    0.0055   -0.0244    0.1787 B   0  0  0  0  0  0  0  0  0  0  0  0
    1.2994   -2.5847    0.7223 C   0  0  0  0  0  0  0  0  0  0  0  0
    1.7549   -1.5256   -0.0490 C   0  0  0  0  0  0  0  0  0  0  0  0
    3.1542   -1.2896   -0.0790 C   0  0  0  0  0  0  0  0  0  0  0  0
    3.9906   -2.3781    0.2679 C   0  0  0  0  0  0  0  0  0  0  0  0
    3.4685   -3.5189    0.8951 C   0  0  0  0  0  0  0  0  0  0  0  0
    2.1393   -3.5835    1.2297 C   0  0  0  0  0  0  0  0  0  0  0  0
    3.7148   -0.0142   -0.4108 C   0  0  0  0  0  0  0  0  0  0  0  0
    5.0646   -0.0119   -0.8034 C   0  0  0  0  0  0  0  0  0  0  0  0
    5.8992   -1.1597   -0.6692 C   0  0  0  0  0  0  0  0  0  0  0  0
    3.0252    1.2447   -0.2623 C   0  0  0  0  0  0  0  0  0  0  0  0
    3.6493    2.4019   -0.8101 C   0  0  0  0  0  0  0  0  0  0  0  0
    4.9359    2.3708   -1.4907 C   0  0  0  0  0  0  0  0  0  0  0  0
    5.6849    1.1357   -1.3661 C   0  0  0  0  0  0  0  0  0  0  0  0
    6.9989    1.1017   -1.8049 C   0  0  0  0  0  0  0  0  0  0  0  0
    7.7992   -0.0289   -1.6919 C   0  0  0  0  0  0  0  0  0  0  0  0
    7.2190   -1.1417   -1.1011 C   0  0  0  0  0  0  0  0  0  0  0  0
    1.8165    1.4820    0.4763 C   0  0  0  0  0  0  0  0  0  0  0  0
    1.3320    2.7817    0.5657 C   0  0  0  0  0  0  0  0  0  0  0  0
    1.9259    3.8977   -0.0161 C   0  0  0  0  0  0  0  0  0  0  0  0
    3.0910    3.6793   -0.7052 C   0  0  0  0  0  0  0  0  0  0  0  0
    1.0811    0.5344    1.1481 O   0  0  0  0  0  0  0  0  0  0  0  0
    0.9055   -0.7249   -0.7567 O   0  0  0  0  0  0  0  0  0  0  0  0
    5.4132   -2.3578   -0.0029 C   0  0  0  0  0  0  0  0  0  0  0  0
    5.4070    3.3621   -2.0866 O   0  0  0  0  0  0  0  0  0  0  0  0
    6.1746   -3.3047    0.2903 O   0  0  0  0  0  0  0  0  0  0  0  0
   -5.2721   -1.4959   -3.8459 O   0  0  0  0  0  0  0  0  0  0  0  0
   -6.2296    2.6640    1.8483 O   0  0  0  0  0  0  0  0  0  0  0  0
   -1.0756   -4.1353   -3.1985 C   0  0  0  0  0  0  0  0  0  0  0  0
    0.2883   -4.5145   -2.6173 C   0  0  0  0  0  0  0  0  0  0  0  0
   -0.8622   -3.6902   -4.6520 C   0  0  0  0  0  0  0  0  0  0  0  0
   -1.9847   -5.3733   -3.1694 C   0  0  0  0  0  0  0  0  0  0  0  0
   -1.7874    2.8605    4.3124 C   0  0  0  0  0  0  0  0  0  0  0  0
   -2.0724    4.3653    4.4299 C   0  0  0  0  0  0  0  0  0  0  0  0
   -2.5758    2.1072    5.3939 C   0  0  0  0  0  0  0  0  0  0  0  0
   -0.2945    2.6328    4.5614 C   0  0  0  0  0  0  0  0  0  0  0  0
   -9.1449    1.3477   -2.1846 C   0  0  0  0  0  0  0  0  0  0  0  0
   -9.0848    1.9291   -3.6046 C   0  0  0  0  0  0  0  0  0  0  0  0
   -9.9021    2.3370   -1.2939 C   0  0  0  0  0  0  0  0  0  0  0  0
   -9.9265    0.0261   -2.2072 C   0  0  0  0  0  0  0  0  0  0  0  0
    1.5349   -4.6756    2.1028 C   0  0  0  0  0  0  0  0  0  0  0  0
    0.4479   -5.4319    1.3275 C   0  0  0  0  0  0  0  0  0  0  0  0
    0.9122   -4.0184    3.3421 C   0  0  0  0  0  0  0  0  0  0  0  0
    2.5826   -5.6917    2.5702 C   0  0  0  0  0  0  0  0  0  0  0  0
    1.3274    5.2953    0.0734 C   0  0  0  0  0  0  0  0  0  0  0  0
    2.3603    6.2537    0.6859 C   0  0  0  0  0  0  0  0  0  0  0  0
    0.9718    5.7621   -1.3446 C   0  0  0  0  0  0  0  0  0  0  0  0
    0.0597    5.3480    0.9295 C   0  0  0  0  0  0  0  0  0  0  0  0
    9.2386    0.0099   -2.1880 C   0  0  0  0  0  0  0  0  0  0  0  0
   10.0082    1.0929   -1.4176 C   0  0  0  0  0  0  0  0  0  0  0  0
    9.9645   -1.3243   -1.9924 C   0  0  0  0  0  0  0  0  0  0  0  0
    9.2481    0.3457   -3.6864 C   0  0  0  0  0  0  0  0  0  0  0  0
   -2.2906    2.4472    6.3918 H   0  0  0  0  0  0  0  0  0  0  0  0
   -2.3751    1.0409    5.3180 H   0  0  0  0  0  0  0  0  0  0  0  0
   -3.6443    2.2602    5.2659 H   0  0  0  0  0  0  0  0  0  0  0  0
   -0.0280    2.9784    5.5628 H   0  0  0  0  0  0  0  0  0  0  0  0
    0.3092    3.1786    3.8409 H   0  0  0  0  0  0  0  0  0  0  0  0
   -0.0467    1.5776    4.4846 H   0  0  0  0  0  0  0  0  0  0  0  0
   -1.7532    4.7443    5.4029 H   0  0  0  0  0  0  0  0  0  0  0  0
   -3.1336    4.5673    4.3117 H   0  0  0  0  0  0  0  0  0  0  0  0
   -1.5370    4.9062    3.6529 H   0  0  0  0  0  0  0  0  0  0  0  0
   -0.3333    6.3666    0.9488 H   0  0  0  0  0  0  0  0  0  0  0  0
    0.2741    5.0467    1.9526 H   0  0  0  0  0  0  0  0  0  0  0  0
   -0.7092    4.6931    0.5290 H   0  0  0  0  0  0  0  0  0  0  0  0
    1.9579    7.2667    0.7474 H   0  0  0  0  0  0  0  0  0  0  0  0
    3.2673    6.2777    0.0881 H   0  0  0  0  0  0  0  0  0  0  0  0
    2.6247    5.9241    1.6893 H   0  0  0  0  0  0  0  0  0  0  0  0
    0.5538    6.7707   -1.3291 H   0  0  0  0  0  0  0  0  0  0  0  0
    0.2380    5.0857   -1.7762 H   0  0  0  0  0  0  0  0  0  0  0  0
    1.8528    5.7590   -1.9814 H   0  0  0  0  0  0  0  0  0  0  0  0
   11.0430    1.1541   -1.7612 H   0  0  0  0  0  0  0  0  0  0  0  0
   10.0076    0.8621   -0.3539 H   0  0  0  0  0  0  0  0  0  0  0  0
    9.5403    2.0641   -1.5522 H   0  0  0  0  0  0  0  0  0  0  0  0
   10.9876   -1.2510   -2.3672 H   0  0  0  0  0  0  0  0  0  0  0  0
    9.4576   -2.1203   -2.5326 H   0  0  0  0  0  0  0  0  0  0  0  0
   10.0043   -1.5907   -0.9390 H   0  0  0  0  0  0  0  0  0  0  0  0
   10.2704    0.3936   -4.0676 H   0  0  0  0  0  0  0  0  0  0  0  0
    8.7653    1.3016   -3.8685 H   0  0  0  0  0  0  0  0  0  0  0  0
    8.7052   -0.4173   -4.2408 H   0  0  0  0  0  0  0  0  0  0  0  0
   -0.3789   -4.4799   -5.2307 H   0  0  0  0  0  0  0  0  0  0  0  0
   -0.2292   -2.8063   -4.6713 H   0  0  0  0  0  0  0  0  0  0  0  0
   -1.8076   -3.4420   -5.1269 H   0  0  0  0  0  0  0  0  0  0  0  0
   -1.5398   -6.1947   -3.7343 H   0  0  0  0  0  0  0  0  0  0  0  0
   -2.9575   -5.1434   -3.5972 H   0  0  0  0  0  0  0  0  0  0  0  0
   -2.1342   -5.7003   -2.1419 H   0  0  0  0  0  0  0  0  0  0  0  0
    0.7606   -5.2741   -3.2434 H   0  0  0  0  0  0  0  0  0  0  0  0
    0.1865   -4.9184   -1.6140 H   0  0  0  0  0  0  0  0  0  0  0  0
    0.9430   -3.6484   -2.5743 H   0  0  0  0  0  0  0  0  0  0  0  0
   -0.0012   -6.2076    1.9511 H   0  0  0  0  0  0  0  0  0  0  0  0
    0.8798   -5.9050    0.4467 H   0  0  0  0  0  0  0  0  0  0  0  0
   -0.3371   -4.7540    1.0055 H   0  0  0  0  0  0  0  0  0  0  0  0
    2.1160   -6.4386    3.2157 H   0  0  0  0  0  0  0  0  0  0  0  0
    3.3725   -5.1977    3.1307 H   0  0  0  0  0  0  0  0  0  0  0  0
    3.0285   -6.2046    1.7209 H   0  0  0  0  0  0  0  0  0  0  0  0
    0.4478   -4.7677    3.9865 H   0  0  0  0  0  0  0  0  0  0  0  0
    0.1587   -3.2928    3.0512 H   0  0  0  0  0  0  0  0  0  0  0  0
    1.6800   -3.4960    3.9098 H   0  0  0  0  0  0  0  0  0  0  0  0
  -10.0887    2.1154   -3.9917 H   0  0  0  0  0  0  0  0  0  0  0  0
   -8.5749    1.2454   -4.2774 H   0  0  0  0  0  0  0  0  0  0  0  0
   -8.5346    2.8680   -3.5975 H   0  0  0  0  0  0  0  0  0  0  0  0
  -10.9446    0.1827   -2.5697 H   0  0  0  0  0  0  0  0  0  0  0  0
   -9.9749   -0.3935   -1.2041 H   0  0  0  0  0  0  0  0  0  0  0  0
   -9.4366   -0.6978   -2.8524 H   0  0  0  0  0  0  0  0  0  0  0  0
  -10.9073    2.5003   -1.6882 H   0  0  0  0  0  0  0  0  0  0  0  0
   -9.3877    3.2942   -1.2592 H   0  0  0  0  0  0  0  0  0  0  0  0
   -9.9900    1.9536   -0.2802 H   0  0  0  0  0  0  0  0  0  0  0  0
   -7.7618    2.3309    0.0736 H   0  0  0  0  0  0  0  0  0  0  0  0
   -7.2486   -0.2968   -3.2837 H   0  0  0  0  0  0  0  0  0  0  0  0
   -3.4496   -2.8470   -3.7500 H   0  0  0  0  0  0  0  0  0  0  0  0
   -0.3181   -2.8746   -0.8740 H   0  0  0  0  0  0  0  0  0  0  0  0
   -4.2887    3.0244    3.1641 H   0  0  0  0  0  0  0  0  0  0  0  0
   -0.3358    1.6397    2.2794 H   0  0  0  0  0  0  0  0  0  0  0  0
    0.4163    2.9152    1.1061 H   0  0  0  0  0  0  0  0  0  0  0  0
    3.6399    4.4775   -1.1863 H   0  0  0  0  0  0  0  0  0  0  0  0
    7.3769    2.0183   -2.2401 H   0  0  0  0  0  0  0  0  0  0  0  0
    7.7729   -2.0556   -0.9395 H   0  0  0  0  0  0  0  0  0  0  0  0
    4.1796   -4.2947    1.1357 H   0  0  0  0  0  0  0  0  0  0  0  0
    0.2509   -2.6036    0.9641 H   0  0  0  0  0  0  0  0  0  0  0  0
  1  2  4  0  0  0  0
  2  3  4  0  0  0  0
  3  4  4  0  0  0  0
  4  5  4  0  0  0  0
  1  6  4  0  0  0  0
  5  6  4  0  0  0  0
  3  7  1  0  0  0  0
  7  8  4  0  0  0  0
  8  9  4  0  0  0  0
  4 10  1  0  0  0  0
  9 10  1  0  0  0  0
  7 11  1  0  0  0  0
 11 12  4  0  0  0  0
 12 13  1  0  0  0  0
  8 14  4  0  0  0  0
 13 14  1  0  0  0  0
 14 15  4  0  0  0  0
 15 16  4  0  0  0  0
  9 17  4  0  0  0  0
 16 17  4  0  0  0  0
 11 18  4  0  0  0  0
 18 19  4  0  0  0  0
 19 20  4  0  0  0  0
 12 21  4  0  0  0  0
 20 21  4  0  0  0  0
  2 22  1  0  0  0  0
 18 23  1  0  0  0  0
 22 24  1  0  0  0  0
 23 24  1  0  0  0  0
 25 26  4  0  0  0  0
 26 27  4  0  0  0  0
 27 28  4  0  0  0  0
 28 29  4  0  0  0  0
 25 30  4  0  0  0  0
 29 30  4  0  0  0  0
 27 31  1  0  0  0  0
 31 32  4  0  0  0  0
 32 33  4  0  0  0  0
 31 34  1  0  0  0  0
 34 35  4  0  0  0  0
 35 36  1  0  0  0  0
 32 37  4  0  0  0  0
 36 37  1  0  0  0  0
 37 38  4  0  0  0  0
 38 39  4  0  0  0  0
 33 40  4  0  0  0  0
 39 40  4  0  0  0  0
 34 41  4  0  0  0  0
 41 42  4  0  0  0  0
 42 43  4  0  0  0  0
 35 44  4  0  0  0  0
 43 44  4  0  0  0  0
 24 45  1  0  0  0  0
 41 45  1  0  0  0  0
 24 46  1  0  0  0  0
 26 46  1  0  0  0  0
 28 47  1  0  0  0  0
 33 47  1  0  0  0  0
 36 48  2  0  0  0  0
 47 49  2  0  0  0  0
 10 50  2  0  0  0  0
 13 51  2  0  0  0  0
  6 52  1  0  0  0  0
 52 53  1  0  0  0  0
 52 54  1  0  0  0  0
 52 55  1  0  0  0  0
 20 56  1  0  0  0  0
 56 57  1  0  0  0  0
 56 58  1  0  0  0  0
 56 59  1  0  0  0  0
 16 60  1  0  0  0  0
 60 61  1  0  0  0  0
 60 62  1  0  0  0  0
 60 63  1  0  0  0  0
 30 64  1  0  0  0  0
 64 65  1  0  0  0  0
 64 66  1  0  0  0  0
 64 67  1  0  0  0  0
 43 68  1  0  0  0  0
 68 69  1  0  0  0  0
 68 70  1  0  0  0  0
 68 71  1  0  0  0  0
 39 72  1  0  0  0  0
 72 73  1  0  0  0  0
 72 74  1  0  0  0  0
 72 75  1  0  0  0  0
 58 76  1  0  0  0  0
 58 77  1  0  0  0  0
 58 78  1  0  0  0  0
 59 79  1  0  0  0  0
 59 80  1  0  0  0  0
 59 81  1  0  0  0  0
 57 82  1  0  0  0  0
 57 83  1  0  0  0  0
 57 84  1  0  0  0  0
 71 85  1  0  0  0  0
 71 86  1  0  0  0  0
 71 87  1  0  0  0  0
 69 88  1  0  0  0  0
 69 89  1  0  0  0  0
 69 90  1  0  0  0  0
 70 91  1  0  0  0  0
 70 92  1  0  0  0  0
 70 93  1  0  0  0  0
 73 94  1  0  0  0  0
 73 95  1  0  0  0  0
 73 96  1  0  0  0  0
 74 97  1  0  0  0  0
 74 98  1  0  0  0  0
 74 99  1  0  0  0  0
 75100  1  0  0  0  0
 75101  1  0  0  0  0
 75102  1  0  0  0  0
 54103  1  0  0  0  0
 54104  1  0  0  0  0
 54105  1  0  0  0  0
 55106  1  0  0  0  0
 55107  1  0  0  0  0
 55108  1  0  0  0  0
 53109  1  0  0  0  0
 53110  1  0  0  0  0
 53111  1  0  0  0  0
 65112  1  0  0  0  0
 65113  1  0  0  0  0
 65114  1  0  0  0  0
 67115  1  0  0  0  0
 67116  1  0  0  0  0
 67117  1  0  0  0  0
 66118  1  0  0  0  0
 66119  1  0  0  0  0
 66120  1  0  0  0  0
 61121  1  0  0  0  0
 61122  1  0  0  0  0
 61123  1  0  0  0  0
 63124  1  0  0  0  0
 63125  1  0  0  0  0
 63126  1  0  0  0  0
 62127  1  0  0  0  0
 62128  1  0  0  0  0
 62129  1  0  0  0  0
 15130  1  0  0  0  0
 17131  1  0  0  0  0
  5132  1  0  0  0  0
  1133  1  0  0  0  0
 21134  1  0  0  0  0
 19135  1  0  0  0  0
 42136  1  0  0  0  0
 44137  1  0  0  0  0
 38138  1  0  0  0  0
 40139  1  0  0  0  0
 29140  1  0  0  0  0
 25141  1  0  0  0  0
M  CHG  1   1  -3
M  END
