 energy: -56.991400085032 gnorm: 0.000601578027 xtb: 6.7.1 (edcfbbe)
          12102414593D

282304  0     0  0            999 V2000
   -1.1046   -1.6921   -1.9302 C   0  0  0  0  0  0  0  0  0  0  0  0
   -1.7711   -1.1268   -0.8359 C   0  0  0  0  0  0  0  0  0  0  0  0
   -3.1452   -0.7254   -1.0293 C   0  0  0  0  0  0  0  0  0  0  0  0
   -3.7933   -1.2353   -2.1907 C   0  0  0  0  0  0  0  0  0  0  0  0
   -3.0813   -1.8973   -3.1884 C   0  0  0  0  0  0  0  0  0  0  0  0
   -1.7245   -2.0912   -3.1067 C   0  0  0  0  0  0  0  0  0  0  0  0
   -3.8882    0.1693   -0.1538 C   0  0  0  0  0  0  0  0  0  0  0  0
   -5.3164    0.2298   -0.3049 C   0  0  0  0  0  0  0  0  0  0  0  0
   -5.9848   -0.3953   -1.3920 C   0  0  0  0  0  0  0  0  0  0  0  0
   -5.2270   -1.0984   -2.4067 C   0  0  0  0  0  0  0  0  0  0  0  0
   -3.2811    1.0235    0.8536 C   0  0  0  0  0  0  0  0  0  0  0  0
   -4.1080    1.6063    1.8563 C   0  0  0  0  0  0  0  0  0  0  0  0
   -5.5609    1.6235    1.7462 C   0  0  0  0  0  0  0  0  0  0  0  0
   -6.1414    0.9391    0.6097 C   0  0  0  0  0  0  0  0  0  0  0  0
   -7.5187    0.9959    0.4366 C   0  0  0  0  0  0  0  0  0  0  0  0
   -8.1632    0.3720   -0.6205 C   0  0  0  0  0  0  0  0  0  0  0  0
   -7.3661   -0.3129   -1.5254 C   0  0  0  0  0  0  0  0  0  0  0  0
   -1.8809    1.3572    0.9042 C   0  0  0  0  0  0  0  0  0  0  0  0
   -1.3913    1.9296    2.0825 C   0  0  0  0  0  0  0  0  0  0  0  0
   -2.1945    2.3546    3.1333 C   0  0  0  0  0  0  0  0  0  0  0  0
   -3.5545    2.2319    2.9711 C   0  0  0  0  0  0  0  0  0  0  0  0
   -1.0534   -1.0073    0.3693 O   0  0  0  0  0  0  0  0  0  0  0  0
   -0.9976    1.1831   -0.1738 O   0  0  0  0  0  0  0  0  0  0  0  0
   -0.0392    0.0738    0.1539 B   0  0  0  0  0  0  0  0  0  0  0  0
    1.2534   -2.7529   -0.0458 C   0  0  0  0  0  0  0  0  0  0  0  0
    1.7787   -1.4594   -0.1111 C   0  0  0  0  0  0  0  0  0  0  0  0
    3.0733   -1.2239    0.4697 C   0  0  0  0  0  0  0  0  0  0  0  0
    3.7704   -2.3547    0.9771 C   0  0  0  0  0  0  0  0  0  0  0  0
    3.1790   -3.6169    1.0054 C   0  0  0  0  0  0  0  0  0  0  0  0
    1.9257   -3.8475    0.4886 C   0  0  0  0  0  0  0  0  0  0  0  0
    3.7472    0.0677    0.4792 C   0  0  0  0  0  0  0  0  0  0  0  0
    5.1825    0.0661    0.5465 C   0  0  0  0  0  0  0  0  0  0  0  0
    5.9032   -1.0933    0.9348 C   0  0  0  0  0  0  0  0  0  0  0  0
    3.0811    1.3522    0.3706 C   0  0  0  0  0  0  0  0  0  0  0  0
    3.8379    2.4949   -0.0054 C   0  0  0  0  0  0  0  0  0  0  0  0
    5.2884    2.4501   -0.1509 C   0  0  0  0  0  0  0  0  0  0  0  0
    5.9510    1.2107    0.2087 C   0  0  0  0  0  0  0  0  0  0  0  0
    7.3392    1.1501    0.1976 C   0  0  0  0  0  0  0  0  0  0  0  0
    8.0393   -0.0069    0.5122 C   0  0  0  0  0  0  0  0  0  0  0  0
    7.2930   -1.1133    0.8964 C   0  0  0  0  0  0  0  0  0  0  0  0
    1.6894    1.5577    0.6585 C   0  0  0  0  0  0  0  0  0  0  0  0
    1.1338    2.8040    0.3600 C   0  0  0  0  0  0  0  0  0  0  0  0
    1.8663    3.8981   -0.0820 C   0  0  0  0  0  0  0  0  0  0  0  0
    3.2220    3.7248   -0.2279 C   0  0  0  0  0  0  0  0  0  0  0  0
    0.8626    0.5823    1.2326 O   0  0  0  0  0  0  0  0  0  0  0  0
    1.0201   -0.4739   -0.7659 O   0  0  0  0  0  0  0  0  0  0  0  0
    5.1740   -2.2707    1.3800 C   0  0  0  0  0  0  0  0  0  0  0  0
    5.9292    3.4305   -0.5335 O   0  0  0  0  0  0  0  0  0  0  0  0
    5.7308   -3.1646    2.0205 O   0  0  0  0  0  0  0  0  0  0  0  0
   -5.7771   -1.5707   -3.4034 O   0  0  0  0  0  0  0  0  0  0  0  0
   -6.2718    2.2189    2.5576 O   0  0  0  0  0  0  0  0  0  0  0  0
   -0.9654   -2.7716   -4.2589 C   0  0  0  0  0  0  0  0  0  0  0  0
    0.5520   -2.8259   -3.9901 C   0  0  0  0  0  0  0  0  0  0  0  0
   -1.1957   -1.9841   -5.5634 C   0  0  0  0  0  0  0  0  0  0  0  0
   -1.4825   -4.2129   -4.4282 C   0  0  0  0  0  0  0  0  0  0  0  0
   -1.5664    3.0179    4.3700 C   0  0  0  0  0  0  0  0  0  0  0  0
   -0.8931    4.3368    3.9484 C   0  0  0  0  0  0  0  0  0  0  0  0
   -2.6268    3.3311    5.4443 C   0  0  0  0  0  0  0  0  0  0  0  0
   -0.5173    2.0736    4.9875 C   0  0  0  0  0  0  0  0  0  0  0  0
   -9.6898    0.4397   -0.8174 C   0  0  0  0  0  0  0  0  0  0  0  0
  -10.0027    1.1846   -2.1301 C   0  0  0  0  0  0  0  0  0  0  0  0
  -10.3869    1.1832    0.3429 C   0  0  0  0  0  0  0  0  0  0  0  0
  -10.2661   -0.9891   -0.8854 C   0  0  0  0  0  0  0  0  0  0  0  0
    1.3795   -5.2876    0.4027 C   0  0  0  0  0  0  0  0  0  0  0  0
   -0.0090   -5.3445   -0.2682 C   0  0  0  0  0  0  0  0  0  0  0  0
    1.2661   -5.9057    1.8102 C   0  0  0  0  0  0  0  0  0  0  0  0
    2.3484   -6.1359   -0.4461 C   0  0  0  0  0  0  0  0  0  0  0  0
    1.2245    5.2719   -0.3408 C   0  0  0  0  0  0  0  0  0  0  0  0
    1.7494    6.2795    0.6991 C   0  0  0  0  0  0  0  0  0  0  0  0
    1.5875    5.7551   -1.7586 C   0  0  0  0  0  0  0  0  0  0  0  0
   -0.3125    5.2121   -0.2315 C   0  0  0  0  0  0  0  0  0  0  0  0
    9.5794   -0.0209    0.4403 C   0  0  0  0  0  0  0  0  0  0  0  0
   10.1502    0.8907    1.5441 C   0  0  0  0  0  0  0  0  0  0  0  0
   10.1576   -1.4418    0.6208 C   0  0  0  0  0  0  0  0  0  0  0  0
   10.0384    0.4972   -0.9394 C   0  0  0  0  0  0  0  0  0  0  0  0
   -2.1669    3.7554    6.3390 H   0  0  0  0  0  0  0  0  0  0  0  0
   -3.1548    2.4254    5.7436 H   0  0  0  0  0  0  0  0  0  0  0  0
   -3.3606    4.0535    5.0811 H   0  0  0  0  0  0  0  0  0  0  0  0
   -0.0977    2.4953    5.9024 H   0  0  0  0  0  0  0  0  0  0  0  0
    0.3096    1.8901    4.3002 H   0  0  0  0  0  0  0  0  0  0  0  0
   -0.9655    1.1119    5.2414 H   0  0  0  0  0  0  0  0  0  0  0  0
   -0.4973    4.8718    4.8141 H   0  0  0  0  0  0  0  0  0  0  0  0
   -1.6089    4.9930    3.4491 H   0  0  0  0  0  0  0  0  0  0  0  0
   -0.0672    4.1553    3.2585 H   0  0  0  0  0  0  0  0  0  0  0  0
   -0.7572    6.1851   -0.4521 H   0  0  0  0  0  0  0  0  0  0  0  0
   -0.6273    4.9302    0.7747 H   0  0  0  0  0  0  0  0  0  0  0  0
   -0.7280    4.4903   -0.9370 H   0  0  0  0  0  0  0  0  0  0  0  0
    1.3039    7.2665    0.5521 H   0  0  0  0  0  0  0  0  0  0  0  0
    2.8335    6.3891    0.6314 H   0  0  0  0  0  0  0  0  0  0  0  0
    1.5100    5.9492    1.7121 H   0  0  0  0  0  0  0  0  0  0  0  0
    1.1179    6.7169   -1.9791 H   0  0  0  0  0  0  0  0  0  0  0  0
    1.2510    5.0365   -2.5085 H   0  0  0  0  0  0  0  0  0  0  0  0
    2.6654    5.8804   -1.8748 H   0  0  0  0  0  0  0  0  0  0  0  0
   11.2433    0.8995    1.5234 H   0  0  0  0  0  0  0  0  0  0  0  0
    9.8372    0.5520    2.5339 H   0  0  0  0  0  0  0  0  0  0  0  0
    9.8061    1.9197    1.4218 H   0  0  0  0  0  0  0  0  0  0  0  0
   11.2449   -1.4374    0.5045 H   0  0  0  0  0  0  0  0  0  0  0  0
    9.7502   -2.1284   -0.1246 H   0  0  0  0  0  0  0  0  0  0  0  0
    9.9441   -1.8452    1.6121 H   0  0  0  0  0  0  0  0  0  0  0  0
   11.1273    0.4622   -1.0314 H   0  0  0  0  0  0  0  0  0  0  0  0
    9.7294    1.5308   -1.1040 H   0  0  0  0  0  0  0  0  0  0  0  0
    9.6150   -0.1111   -1.7419 H   0  0  0  0  0  0  0  0  0  0  0  0
   -0.6478   -2.4320   -6.3961 H   0  0  0  0  0  0  0  0  0  0  0  0
   -0.8581   -0.9514   -5.4548 H   0  0  0  0  0  0  0  0  0  0  0  0
   -2.2524   -1.9636   -5.8359 H   0  0  0  0  0  0  0  0  0  0  0  0
   -0.9504   -4.7314   -5.2295 H   0  0  0  0  0  0  0  0  0  0  0  0
   -2.5465   -4.2263   -4.6722 H   0  0  0  0  0  0  0  0  0  0  0  0
   -1.3444   -4.7839   -3.5079 H   0  0  0  0  0  0  0  0  0  0  0  0
    1.0797   -3.2889   -4.8271 H   0  0  0  0  0  0  0  0  0  0  0  0
    0.7756   -3.4131   -3.0981 H   0  0  0  0  0  0  0  0  0  0  0  0
    0.9630   -1.8238   -3.8547 H   0  0  0  0  0  0  0  0  0  0  0  0
   -0.3624   -6.3758   -0.3397 H   0  0  0  0  0  0  0  0  0  0  0  0
    0.0280   -4.9414   -1.2813 H   0  0  0  0  0  0  0  0  0  0  0  0
   -0.7553   -4.7843    0.2971 H   0  0  0  0  0  0  0  0  0  0  0  0
    1.9828   -7.1598   -0.5573 H   0  0  0  0  0  0  0  0  0  0  0  0
    3.3386   -6.1857    0.0102 H   0  0  0  0  0  0  0  0  0  0  0  0
    2.4613   -5.7090   -1.4449 H   0  0  0  0  0  0  0  0  0  0  0  0
    0.9550   -6.9518    1.7526 H   0  0  0  0  0  0  0  0  0  0  0  0
    0.5260   -5.3791    2.4154 H   0  0  0  0  0  0  0  0  0  0  0  0
    2.2207   -5.8735    2.3388 H   0  0  0  0  0  0  0  0  0  0  0  0
  -11.0810    1.2586   -2.2956 H   0  0  0  0  0  0  0  0  0  0  0  0
   -9.5690    0.6708   -2.9902 H   0  0  0  0  0  0  0  0  0  0  0  0
   -9.5964    2.1984   -2.1071 H   0  0  0  0  0  0  0  0  0  0  0  0
  -11.3531   -0.9712   -1.0022 H   0  0  0  0  0  0  0  0  0  0  0  0
  -10.0361   -1.5434    0.0274 H   0  0  0  0  0  0  0  0  0  0  0  0
   -9.8530   -1.5465   -1.7281 H   0  0  0  0  0  0  0  0  0  0  0  0
  -11.4705    1.2075    0.1975 H   0  0  0  0  0  0  0  0  0  0  0  0
  -10.0453    2.2185    0.4136 H   0  0  0  0  0  0  0  0  0  0  0  0
  -10.1959    0.6900    1.2989 H   0  0  0  0  0  0  0  0  0  0  0  0
   -8.0881    1.5616    1.1506 H   0  0  0  0  0  0  0  0  0  0  0  0
   -7.8203   -0.7953   -2.3728 H   0  0  0  0  0  0  0  0  0  0  0  0
   -3.6197   -2.2375   -4.0555 H   0  0  0  0  0  0  0  0  0  0  0  0
   -0.0405   -1.7903   -1.8706 H   0  0  0  0  0  0  0  0  0  0  0  0
   -4.2284    2.6177    3.7148 H   0  0  0  0  0  0  0  0  0  0  0  0
   -0.3322    2.0652    2.1822 H   0  0  0  0  0  0  0  0  0  0  0  0
    0.0723    2.9108    0.4528 H   0  0  0  0  0  0  0  0  0  0  0  0
    3.8398    4.5553   -0.5207 H   0  0  0  0  0  0  0  0  0  0  0  0
    7.8784    2.0408   -0.0720 H   0  0  0  0  0  0  0  0  0  0  0  0
    7.7864   -2.0330    1.1542 H   0  0  0  0  0  0  0  0  0  0  0  0
    3.7565   -4.4375    1.3934 H   0  0  0  0  0  0  0  0  0  0  0  0
    0.2617   -2.9126   -0.4169 H   0  0  0  0  0  0  0  0  0  0  0  0
   -0.9171   -1.7887    6.1135 C   0  0  0  0  0  0  0  0  0  0  0  0
   -1.6710   -1.1194    7.0976 C   0  0  0  0  0  0  0  0  0  0  0  0
   -2.8654   -0.4360    6.6606 C   0  0  0  0  0  0  0  0  0  0  0  0
   -3.2977   -0.7276    5.3353 C   0  0  0  0  0  0  0  0  0  0  0  0
   -2.4799   -1.3551    4.4141 C   0  0  0  0  0  0  0  0  0  0  0  0
   -1.2449   -1.8545    4.7771 C   0  0  0  0  0  0  0  0  0  0  0  0
   -3.6185    0.5242    7.4380 C   0  0  0  0  0  0  0  0  0  0  0  0
   -4.9203    0.9274    6.9675 C   0  0  0  0  0  0  0  0  0  0  0  0
   -5.3806    0.5627    5.6851 C   0  0  0  0  0  0  0  0  0  0  0  0
   -4.6274   -0.3680    4.8703 C   0  0  0  0  0  0  0  0  0  0  0  0
   -3.1232    1.1863    8.6187 C   0  0  0  0  0  0  0  0  0  0  0  0
   -4.0279    1.8238    9.5094 C   0  0  0  0  0  0  0  0  0  0  0  0
   -5.4051    2.1021    9.1064 C   0  0  0  0  0  0  0  0  0  0  0  0
   -5.7679    1.7614    7.7340 C   0  0  0  0  0  0  0  0  0  0  0  0
   -6.9371    2.2682    7.1845 C   0  0  0  0  0  0  0  0  0  0  0  0
   -7.3275    1.9812    5.8826 C   0  0  0  0  0  0  0  0  0  0  0  0
   -6.5327    1.1096    5.1586 C   0  0  0  0  0  0  0  0  0  0  0  0
   -1.7280    1.2710    8.9503 C   0  0  0  0  0  0  0  0  0  0  0  0
   -1.3857    1.5916   10.2757 C   0  0  0  0  0  0  0  0  0  0  0  0
   -2.2985    2.0783   11.1893 C   0  0  0  0  0  0  0  0  0  0  0  0
   -3.6072    2.2415   10.7612 C   0  0  0  0  0  0  0  0  0  0  0  0
   -1.1607   -1.1099    8.3958 O   0  0  0  0  0  0  0  0  0  0  0  0
   -0.7323    1.0752    8.0071 O   0  0  0  0  0  0  0  0  0  0  0  0
    0.0072   -0.1581    8.3569 B   0  0  0  0  0  0  0  0  0  0  0  0
    0.8773   -2.9431    8.4869 C   0  0  0  0  0  0  0  0  0  0  0  0
    1.5906   -1.7974    8.0994 C   0  0  0  0  0  0  0  0  0  0  0  0
    2.9906   -1.7604    8.3709 C   0  0  0  0  0  0  0  0  0  0  0  0
    3.6308   -2.9987    8.6353 C   0  0  0  0  0  0  0  0  0  0  0  0
    2.8825   -4.1281    8.9263 C   0  0  0  0  0  0  0  0  0  0  0  0
    1.4940   -4.1027    8.9127 C   0  0  0  0  0  0  0  0  0  0  0  0
    3.7460   -0.5388    8.2685 C   0  0  0  0  0  0  0  0  0  0  0  0
    5.1185   -0.6940    7.8637 C   0  0  0  0  0  0  0  0  0  0  0  0
    5.7348   -1.9701    7.8343 C   0  0  0  0  0  0  0  0  0  0  0  0
    3.1880    0.7860    8.4255 C   0  0  0  0  0  0  0  0  0  0  0  0
    3.9730    1.8957    8.0035 C   0  0  0  0  0  0  0  0  0  0  0  0
    5.3405    1.7458    7.5073 C   0  0  0  0  0  0  0  0  0  0  0  0
    5.8557    0.3951    7.3543 C   0  0  0  0  0  0  0  0  0  0  0  0
    7.0233    0.1720    6.6446 C   0  0  0  0  0  0  0  0  0  0  0  0
    7.5363   -1.1060    6.4617 C   0  0  0  0  0  0  0  0  0  0  0  0
    6.9136   -2.1537    7.1302 C   0  0  0  0  0  0  0  0  0  0  0  0
    1.8791    1.0868    8.9740 C   0  0  0  0  0  0  0  0  0  0  0  0
    1.4373    2.4199    8.9088 C   0  0  0  0  0  0  0  0  0  0  0  0
    2.1733    3.4605    8.3926 C   0  0  0  0  0  0  0  0  0  0  0  0
    3.4633    3.1808    7.9893 C   0  0  0  0  0  0  0  0  0  0  0  0
    0.9492    0.1777    9.4900 O   0  0  0  0  0  0  0  0  0  0  0  0
    0.9958   -0.7408    7.4325 O   0  0  0  0  0  0  0  0  0  0  0  0
    5.0789   -3.1117    8.4761 C   0  0  0  0  0  0  0  0  0  0  0  0
    6.0319    2.7192    7.2416 O   0  0  0  0  0  0  0  0  0  0  0  0
    5.6945   -4.1144    8.8088 O   0  0  0  0  0  0  0  0  0  0  0  0
   -5.1014   -0.8629    3.8585 O   0  0  0  0  0  0  0  0  0  0  0  0
   -6.2054    2.6226    9.8713 O   0  0  0  0  0  0  0  0  0  0  0  0
   -0.2169   -2.2830    3.7228 C   0  0  0  0  0  0  0  0  0  0  0  0
    0.7911   -3.3016    4.2898 C   0  0  0  0  0  0  0  0  0  0  0  0
    0.5541   -1.0318    3.2755 C   0  0  0  0  0  0  0  0  0  0  0  0
   -0.9240   -2.9066    2.5070 C   0  0  0  0  0  0  0  0  0  0  0  0
   -1.8926    2.5082   12.6061 C   0  0  0  0  0  0  0  0  0  0  0  0
   -2.1070    4.0250   12.7539 C   0  0  0  0  0  0  0  0  0  0  0  0
   -2.7573    1.7576   13.6347 C   0  0  0  0  0  0  0  0  0  0  0  0
   -0.4115    2.1939   12.8921 C   0  0  0  0  0  0  0  0  0  0  0  0
   -8.4945    2.7005    5.1932 C   0  0  0  0  0  0  0  0  0  0  0  0
   -7.9274    3.9090    4.4285 C   0  0  0  0  0  0  0  0  0  0  0  0
   -9.5377    3.1815    6.2185 C   0  0  0  0  0  0  0  0  0  0  0  0
   -9.1941    1.7582    4.1926 C   0  0  0  0  0  0  0  0  0  0  0  0
    0.6371   -5.3277    9.2573 C   0  0  0  0  0  0  0  0  0  0  0  0
   -0.1256   -5.7764    7.9979 C   0  0  0  0  0  0  0  0  0  0  0  0
   -0.3644   -4.9530   10.3651 C   0  0  0  0  0  0  0  0  0  0  0  0
    1.4995   -6.5018    9.7571 C   0  0  0  0  0  0  0  0  0  0  0  0
    1.5872    4.8668    8.2096 C   0  0  0  0  0  0  0  0  0  0  0  0
    2.2891    5.8400    9.1696 C   0  0  0  0  0  0  0  0  0  0  0  0
    1.8074    5.3155    6.7519 C   0  0  0  0  0  0  0  0  0  0  0  0
    0.0720    4.8867    8.4933 C   0  0  0  0  0  0  0  0  0  0  0  0
    8.5960   -1.3533    5.3800 C   0  0  0  0  0  0  0  0  0  0  0  0
    9.7361   -0.3252    5.4961 C   0  0  0  0  0  0  0  0  0  0  0  0
    9.2026   -2.7645    5.4892 C   0  0  0  0  0  0  0  0  0  0  0  0
    7.9077   -1.2160    4.0078 C   0  0  0  0  0  0  0  0  0  0  0  0
   -2.4783    2.0292   14.6529 H   0  0  0  0  0  0  0  0  0  0  0  0
   -2.6340    0.6803   13.5265 H   0  0  0  0  0  0  0  0  0  0  0  0
   -3.8142    1.9878   13.5065 H   0  0  0  0  0  0  0  0  0  0  0  0
   -0.1436    2.4820   13.9086 H   0  0  0  0  0  0  0  0  0  0  0  0
    0.2441    2.7385   12.2131 H   0  0  0  0  0  0  0  0  0  0  0  0
   -0.2101    1.1284   12.7857 H   0  0  0  0  0  0  0  0  0  0  0  0
   -1.8128    4.3671   13.7462 H   0  0  0  0  0  0  0  0  0  0  0  0
   -3.1524    4.2920   12.6044 H   0  0  0  0  0  0  0  0  0  0  0  0
   -1.5148    4.5700   12.0191 H   0  0  0  0  0  0  0  0  0  0  0  0
   -0.3472    5.8724    8.2950 H   0  0  0  0  0  0  0  0  0  0  0  0
   -0.1395    4.6435    9.5339 H   0  0  0  0  0  0  0  0  0  0  0  0
   -0.4499    4.1710    7.8593 H   0  0  0  0  0  0  0  0  0  0  0  0
    1.8939    6.8498    9.0601 H   0  0  0  0  0  0  0  0  0  0  0  0
    3.3607    5.8750    8.9765 H   0  0  0  0  0  0  0  0  0  0  0  0
    2.1452    5.5304   10.2046 H   0  0  0  0  0  0  0  0  0  0  0  0
    1.3240    6.2724    6.5586 H   0  0  0  0  0  0  0  0  0  0  0  0
    1.3958    4.5812    6.0609 H   0  0  0  0  0  0  0  0  0  0  0  0
    2.8661    5.4264    6.5238 H   0  0  0  0  0  0  0  0  0  0  0  0
   10.5208   -0.5350    4.7700 H   0  0  0  0  0  0  0  0  0  0  0  0
   10.1804   -0.3516    6.4906 H   0  0  0  0  0  0  0  0  0  0  0  0
    9.3825    0.6871    5.3086 H   0  0  0  0  0  0  0  0  0  0  0  0
    9.9900   -2.9035    4.7490 H   0  0  0  0  0  0  0  0  0  0  0  0
    8.4499   -3.5307    5.3082 H   0  0  0  0  0  0  0  0  0  0  0  0
    9.6358   -2.9286    6.4754 H   0  0  0  0  0  0  0  0  0  0  0  0
    8.6205   -1.3765    3.2041 H   0  0  0  0  0  0  0  0  0  0  0  0
    7.4772   -0.2239    3.8772 H   0  0  0  0  0  0  0  0  0  0  0  0
    7.1026   -1.9425    3.8884 H   0  0  0  0  0  0  0  0  0  0  0  0
    1.3022   -1.2685    2.5188 H   0  0  0  0  0  0  0  0  0  0  0  0
    1.0583   -0.5568    4.1165 H   0  0  0  0  0  0  0  0  0  0  0  0
   -0.1210   -0.3007    2.8300 H   0  0  0  0  0  0  0  0  0  0  0  0
   -0.1906   -3.2914    1.8052 H   0  0  0  0  0  0  0  0  0  0  0  0
   -1.5159   -2.1712    1.9622 H   0  0  0  0  0  0  0  0  0  0  0  0
   -1.5749   -3.7269    2.8056 H   0  0  0  0  0  0  0  0  0  0  0  0
    1.4831   -3.6271    3.5140 H   0  0  0  0  0  0  0  0  0  0  0  0
    0.2806   -4.1791    4.6842 H   0  0  0  0  0  0  0  0  0  0  0  0
    1.3953   -2.8662    5.0843 H   0  0  0  0  0  0  0  0  0  0  0  0
   -0.7323   -6.6583    8.2017 H   0  0  0  0  0  0  0  0  0  0  0  0
    0.5688   -6.0212    7.1947 H   0  0  0  0  0  0  0  0  0  0  0  0
   -0.7884   -4.9910    7.6369 H   0  0  0  0  0  0  0  0  0  0  0  0
    0.8749   -7.3517   10.0326 H   0  0  0  0  0  0  0  0  0  0  0  0
    2.0774   -6.2158   10.6355 H   0  0  0  0  0  0  0  0  0  0  0  0
    2.1897   -6.8386    8.9842 H   0  0  0  0  0  0  0  0  0  0  0  0
   -0.9752   -5.8108   10.6460 H   0  0  0  0  0  0  0  0  0  0  0  0
   -1.0355   -4.1589   10.0411 H   0  0  0  0  0  0  0  0  0  0  0  0
    0.1595   -4.6049   11.2548 H   0  0  0  0  0  0  0  0  0  0  0  0
   -8.7162    4.4502    3.9078 H   0  0  0  0  0  0  0  0  0  0  0  0
   -7.1959    3.5817    3.6892 H   0  0  0  0  0  0  0  0  0  0  0  0
   -7.4283    4.5982    5.1084 H   0  0  0  0  0  0  0  0  0  0  0  0
  -10.0773    2.2311    3.7650 H   0  0  0  0  0  0  0  0  0  0  0  0
   -9.5060    0.8353    4.6798 H   0  0  0  0  0  0  0  0  0  0  0  0
   -8.5340    1.5025    3.3654 H   0  0  0  0  0  0  0  0  0  0  0  0
  -10.4013    3.6181    5.7169 H   0  0  0  0  0  0  0  0  0  0  0  0
   -9.1250    3.9446    6.8770 H   0  0  0  0  0  0  0  0  0  0  0  0
   -9.8893    2.3522    6.8317 H   0  0  0  0  0  0  0  0  0  0  0  0
   -7.5238    2.9316    7.7918 H   0  0  0  0  0  0  0  0  0  0  0  0
   -6.7378    0.8999    4.1224 H   0  0  0  0  0  0  0  0  0  0  0  0
   -2.8238   -1.4045    3.3956 H   0  0  0  0  0  0  0  0  0  0  0  0
    0.0230   -2.1975    6.4154 H   0  0  0  0  0  0  0  0  0  0  0  0
   -4.3322    2.6962   11.4109 H   0  0  0  0  0  0  0  0  0  0  0  0
   -0.3679    1.4412   10.5741 H   0  0  0  0  0  0  0  0  0  0  0  0
    0.4311    2.6139    9.2128 H   0  0  0  0  0  0  0  0  0  0  0  0
    4.0925    3.9666    7.6123 H   0  0  0  0  0  0  0  0  0  0  0  0
    7.4852    1.0173    6.1682 H   0  0  0  0  0  0  0  0  0  0  0  0
    7.2963   -3.1547    7.0566 H   0  0  0  0  0  0  0  0  0  0  0  0
    3.4126   -5.0373    9.1402 H   0  0  0  0  0  0  0  0  0  0  0  0
   -0.1923   -2.9138    8.4251 H   0  0  0  0  0  0  0  0  0  0  0  0
  1  2  2  0  0  0  0
  1  6  1  0  0  0  0
  1133  1  0  0  0  0
  2  3  1  0  0  0  0
  2 22  1  0  0  0  0
  3  4  2  0  0  0  0
  3  7  1  0  0  0  0
  4  5  1  0  0  0  0
  4 10  1  0  0  0  0
  5  6  2  0  0  0  0
  5132  1  0  0  0  0
  6 52  1  0  0  0  0
  7  8  2  0  0  0  0
  7 11  1  0  0  0  0
  8 14  1  0  0  0  0
  9  8  1  0  0  0  0
  9 10  1  0  0  0  0
  9 17  1  0  0  0  0
 10 50  2  0  0  0  0
 11 12  2  0  0  0  0
 11 18  1  0  0  0  0
 12 13  1  0  0  0  0
 12 21  1  0  0  0  0
 13 14  1  0  0  0  0
 13 51  2  0  0  0  0
 14 15  2  0  0  0  0
 15 16  1  0  0  0  0
 15130  1  0  0  0  0
 16 17  2  0  0  0  0
 16 60  1  0  0  0  0
 17131  1  0  0  0  0
 18 19  2  0  0  0  0
 18 23  1  0  0  0  0
 19 20  1  0  0  0  0
 19135  1  0  0  0  0
 20 21  2  0  0  0  0
 20 56  1  0  0  0  0
 21134  1  0  0  0  0
 23 24  1  0  0  0  0
 24 22  1  0  0  0  0
 24 45  1  0  0  0  0
 24 46  1  0  0  0  0
 25 26  2  0  0  0  0
 25 30  1  0  0  0  0
 25141  1  0  0  0  0
 26 27  1  0  0  0  0
 26 46  1  0  0  0  0
 27 28  2  0  0  0  0
 27 31  1  0  0  0  0
 28 29  1  0  0  0  0
 28 47  1  0  0  0  0
 29 30  2  0  0  0  0
 29140  1  0  0  0  0
 30 64  1  0  0  0  0
 31 32  2  0  0  0  0
 31 34  1  0  0  0  0
 32 37  1  0  0  0  0
 33 32  1  0  0  0  0
 33 40  1  0  0  0  0
 33 47  1  0  0  0  0
 34 35  2  0  0  0  0
 34 41  1  0  0  0  0
 35 36  1  0  0  0  0
 35 44  1  0  0  0  0
 36 37  1  0  0  0  0
 36 48  2  0  0  0  0
 37 38  2  0  0  0  0
 38 39  1  0  0  0  0
 38138  1  0  0  0  0
 39 40  2  0  0  0  0
 39 72  1  0  0  0  0
 40139  1  0  0  0  0
 41 42  2  0  0  0  0
 41 45  1  0  0  0  0
 42 43  1  0  0  0  0
 42136  1  0  0  0  0
 43 44  2  0  0  0  0
 43 68  1  0  0  0  0
 44137  1  0  0  0  0
 47 49  2  0  0  0  0
 52 53  1  0  0  0  0
 52 54  1  0  0  0  0
 52 55  1  0  0  0  0
 53109  1  0  0  0  0
 53110  1  0  0  0  0
 53111  1  0  0  0  0
 54103  1  0  0  0  0
 54104  1  0  0  0  0
 54105  1  0  0  0  0
 55106  1  0  0  0  0
 55107  1  0  0  0  0
 55108  1  0  0  0  0
 56 57  1  0  0  0  0
 56 58  1  0  0  0  0
 56 59  1  0  0  0  0
 57 82  1  0  0  0  0
 57 83  1  0  0  0  0
 57 84  1  0  0  0  0
 58 76  1  0  0  0  0
 58 77  1  0  0  0  0
 58 78  1  0  0  0  0
 59 79  1  0  0  0  0
 59 80  1  0  0  0  0
 59 81  1  0  0  0  0
 60 61  1  0  0  0  0
 60 62  1  0  0  0  0
 60 63  1  0  0  0  0
 61121  1  0  0  0  0
 61122  1  0  0  0  0
 61123  1  0  0  0  0
 62127  1  0  0  0  0
 62128  1  0  0  0  0
 62129  1  0  0  0  0
 63124  1  0  0  0  0
 63125  1  0  0  0  0
 63126  1  0  0  0  0
 64 65  1  0  0  0  0
 64 66  1  0  0  0  0
 64 67  1  0  0  0  0
 65112  1  0  0  0  0
 65113  1  0  0  0  0
 65114  1  0  0  0  0
 66118  1  0  0  0  0
 66119  1  0  0  0  0
 66120  1  0  0  0  0
 67115  1  0  0  0  0
 67116  1  0  0  0  0
 67117  1  0  0  0  0
 68 69  1  0  0  0  0
 68 70  1  0  0  0  0
 68 71  1  0  0  0  0
 69 88  1  0  0  0  0
 69 89  1  0  0  0  0
 69 90  1  0  0  0  0
 70 91  1  0  0  0  0
 70 92  1  0  0  0  0
 70 93  1  0  0  0  0
 71 85  1  0  0  0  0
 71 86  1  0  0  0  0
 71 87  1  0  0  0  0
 72 73  1  0  0  0  0
 72 74  1  0  0  0  0
 72 75  1  0  0  0  0
 73 94  1  0  0  0  0
 73 95  1  0  0  0  0
 73 96  1  0  0  0  0
 74 97  1  0  0  0  0
 74 98  1  0  0  0  0
 74 99  1  0  0  0  0
 75100  1  0  0  0  0
 75101  1  0  0  0  0
 75102  1  0  0  0  0
142143  2  0  0  0  0
142147  1  0  0  0  0
142274  1  0  0  0  0
143144  1  0  0  0  0
143163  1  0  0  0  0
144145  2  0  0  0  0
144148  1  0  0  0  0
145146  1  0  0  0  0
145151  1  0  0  0  0
146147  2  0  0  0  0
146273  1  0  0  0  0
147193  1  0  0  0  0
148149  2  0  0  0  0
148152  1  0  0  0  0
149155  1  0  0  0  0
150149  1  0  0  0  0
150151  1  0  0  0  0
150158  1  0  0  0  0
151191  2  0  0  0  0
152153  2  0  0  0  0
152159  1  0  0  0  0
153154  1  0  0  0  0
153162  1  0  0  0  0
154155  1  0  0  0  0
154192  2  0  0  0  0
155156  2  0  0  0  0
156157  1  0  0  0  0
156271  1  0  0  0  0
157158  2  0  0  0  0
157201  1  0  0  0  0
158272  1  0  0  0  0
159160  2  0  0  0  0
159164  1  0  0  0  0
160161  1  0  0  0  0
160276  1  0  0  0  0
161162  2  0  0  0  0
161197  1  0  0  0  0
162275  1  0  0  0  0
164165  1  0  0  0  0
165163  1  0  0  0  0
165186  1  0  0  0  0
165187  1  0  0  0  0
166167  2  0  0  0  0
166171  1  0  0  0  0
166282  1  0  0  0  0
167168  1  0  0  0  0
167187  1  0  0  0  0
168169  2  0  0  0  0
168172  1  0  0  0  0
169170  1  0  0  0  0
169188  1  0  0  0  0
170171  2  0  0  0  0
170281  1  0  0  0  0
171205  1  0  0  0  0
172173  2  0  0  0  0
172175  1  0  0  0  0
173178  1  0  0  0  0
174173  1  0  0  0  0
174181  1  0  0  0  0
174188  1  0  0  0  0
175176  2  0  0  0  0
175182  1  0  0  0  0
176177  1  0  0  0  0
176185  1  0  0  0  0
177178  1  0  0  0  0
177189  2  0  0  0  0
178179  2  0  0  0  0
179180  1  0  0  0  0
179279  1  0  0  0  0
180181  2  0  0  0  0
180213  1  0  0  0  0
181280  1  0  0  0  0
182183  2  0  0  0  0
182186  1  0  0  0  0
183184  1  0  0  0  0
183277  1  0  0  0  0
184185  2  0  0  0  0
184209  1  0  0  0  0
185278  1  0  0  0  0
188190  2  0  0  0  0
193194  1  0  0  0  0
193195  1  0  0  0  0
193196  1  0  0  0  0
194250  1  0  0  0  0
194251  1  0  0  0  0
194252  1  0  0  0  0
195244  1  0  0  0  0
195245  1  0  0  0  0
195246  1  0  0  0  0
196247  1  0  0  0  0
196248  1  0  0  0  0
196249  1  0  0  0  0
197198  1  0  0  0  0
197199  1  0  0  0  0
197200  1  0  0  0  0
198223  1  0  0  0  0
198224  1  0  0  0  0
198225  1  0  0  0  0
199217  1  0  0  0  0
199218  1  0  0  0  0
199219  1  0  0  0  0
200220  1  0  0  0  0
200221  1  0  0  0  0
200222  1  0  0  0  0
201202  1  0  0  0  0
201203  1  0  0  0  0
201204  1  0  0  0  0
202262  1  0  0  0  0
202263  1  0  0  0  0
202264  1  0  0  0  0
203268  1  0  0  0  0
203269  1  0  0  0  0
203270  1  0  0  0  0
204265  1  0  0  0  0
204266  1  0  0  0  0
204267  1  0  0  0  0
205206  1  0  0  0  0
205207  1  0  0  0  0
205208  1  0  0  0  0
206253  1  0  0  0  0
206254  1  0  0  0  0
206255  1  0  0  0  0
207259  1  0  0  0  0
207260  1  0  0  0  0
207261  1  0  0  0  0
208256  1  0  0  0  0
208257  1  0  0  0  0
208258  1  0  0  0  0
209210  1  0  0  0  0
209211  1  0  0  0  0
209212  1  0  0  0  0
210229  1  0  0  0  0
210230  1  0  0  0  0
210231  1  0  0  0  0
211232  1  0  0  0  0
211233  1  0  0  0  0
211234  1  0  0  0  0
212226  1  0  0  0  0
212227  1  0  0  0  0
212228  1  0  0  0  0
213214  1  0  0  0  0
213215  1  0  0  0  0
213216  1  0  0  0  0
214235  1  0  0  0  0
214236  1  0  0  0  0
214237  1  0  0  0  0
215238  1  0  0  0  0
215239  1  0  0  0  0
215240  1  0  0  0  0
216241  1  0  0  0  0
216242  1  0  0  0  0
216243  1  0  0  0  0
M  CHG  1  24  -1
M  CHG  1  31  -1
M  CHG  1 165  -1
M  CHG  1 172  -1
M  END
