 energy: -418.867420910256 gnorm: 0.000249580431 xtb: 6.6.1 (8d0f1dd)
          11122411513D

282304  0     0  0            999 V2000
    3.3722   -3.2619   -9.2971 C   0  0  0  0  0  0  0  0  0  0  0  0
    2.5291   -2.2188   -8.9172 C   0  0  0  0  0  0  0  0  0  0  0  0
    1.5367   -1.7577   -9.8466 C   0  0  0  0  0  0  0  0  0  0  0  0
    1.5122   -2.4257  -11.1039 C   0  0  0  0  0  0  0  0  0  0  0  0
    2.4270   -3.4189  -11.4430 C   0  0  0  0  0  0  0  0  0  0  0  0
    3.3717   -3.8655  -10.5465 C   0  0  0  0  0  0  0  0  0  0  0  0
    0.5090   -0.7794   -9.6006 C   0  0  0  0  0  0  0  0  0  0  0  0
   -0.6310   -0.7493  -10.4419 C   0  0  0  0  0  0  0  0  0  0  0  0
   -0.6409   -1.3797  -11.7072 C   0  0  0  0  0  0  0  0  0  0  0  0
    0.5159   -2.1498  -12.1372 C   0  0  0  0  0  0  0  0  0  0  0  0
    0.4826    0.1000   -8.4758 C   0  0  0  0  0  0  0  0  0  0  0  0
   -0.7430    0.5870   -7.9627 C   0  0  0  0  0  0  0  0  0  0  0  0
   -1.9655    0.5237   -8.7469 C   0  0  0  0  0  0  0  0  0  0  0  0
   -1.8216   -0.0728  -10.0736 C   0  0  0  0  0  0  0  0  0  0  0  0
   -2.9110   -0.0204  -10.9341 C   0  0  0  0  0  0  0  0  0  0  0  0
   -2.8952   -0.6031  -12.1928 C   0  0  0  0  0  0  0  0  0  0  0  0
   -1.7379   -1.2832  -12.5506 C   0  0  0  0  0  0  0  0  0  0  0  0
    1.6605    0.4769   -7.7860 C   0  0  0  0  0  0  0  0  0  0  0  0
    1.5332    0.8608   -6.4556 C   0  0  0  0  0  0  0  0  0  0  0  0
    0.3028    1.1542   -5.8653 C   0  0  0  0  0  0  0  0  0  0  0  0
   -0.8131    1.1262   -6.6771 C   0  0  0  0  0  0  0  0  0  0  0  0
    2.7411   -1.7304   -7.6569 O   0  0  0  0  0  0  0  0  0  0  0  0
    2.8558    0.4250   -8.4304 O   0  0  0  0  0  0  0  0  0  0  0  0
    3.7310   -0.5426   -7.7594 B   0  0  0  0  0  0  0  0  0  0  0  0
    5.2877   -2.7715   -6.7112 C   0  0  0  0  0  0  0  0  0  0  0  0
    5.7203   -1.6681   -7.4378 C   0  0  0  0  0  0  0  0  0  0  0  0
    7.0077   -1.1543   -7.1457 C   0  0  0  0  0  0  0  0  0  0  0  0
    7.9264   -2.0403   -6.5343 C   0  0  0  0  0  0  0  0  0  0  0  0
    7.4878   -3.2329   -5.9553 C   0  0  0  0  0  0  0  0  0  0  0  0
    6.1449   -3.5481   -5.9294 C   0  0  0  0  0  0  0  0  0  0  0  0
    7.3554    0.2077   -7.3929 C   0  0  0  0  0  0  0  0  0  0  0  0
    8.7416    0.4975   -7.4473 C   0  0  0  0  0  0  0  0  0  0  0  0
    9.7256   -0.4449   -7.0535 C   0  0  0  0  0  0  0  0  0  0  0  0
    6.4092    1.2929   -7.4518 C   0  0  0  0  0  0  0  0  0  0  0  0
    6.8951    2.5563   -7.8931 C   0  0  0  0  0  0  0  0  0  0  0  0
    8.2822    2.7833   -8.2938 C   0  0  0  0  0  0  0  0  0  0  0  0
    9.2246    1.7412   -7.9147 C   0  0  0  0  0  0  0  0  0  0  0  0
   10.5840    1.9938   -8.0168 C   0  0  0  0  0  0  0  0  0  0  0  0
   11.5448    1.0650   -7.6357 C   0  0  0  0  0  0  0  0  0  0  0  0
   11.0799   -0.1457   -7.1447 C   0  0  0  0  0  0  0  0  0  0  0  0
    5.0444    1.2731   -7.0081 C   0  0  0  0  0  0  0  0  0  0  0  0
    4.3125    2.4596   -7.0326 C   0  0  0  0  0  0  0  0  0  0  0  0
    4.7846    3.6715   -7.5157 C   0  0  0  0  0  0  0  0  0  0  0  0
    6.0904    3.6905   -7.9528 C   0  0  0  0  0  0  0  0  0  0  0  0
    4.3632    0.1795   -6.5460 O   0  0  0  0  0  0  0  0  0  0  0  0
    4.9568   -1.0586   -8.3816 O   0  0  0  0  0  0  0  0  0  0  0  0
    9.3444   -1.7278   -6.4680 C   0  0  0  0  0  0  0  0  0  0  0  0
    8.6547    3.8248   -8.8526 O   0  0  0  0  0  0  0  0  0  0  0  0
   10.1813   -2.4987   -5.9750 O   0  0  0  0  0  0  0  0  0  0  0  0
    0.6052   -2.6023  -13.2882 O   0  0  0  0  0  0  0  0  0  0  0  0
   -3.0506    0.9633   -8.3413 O   0  0  0  0  0  0  0  0  0  0  0  0
    4.3692   -4.9383  -10.9551 C   0  0  0  0  0  0  0  0  0  0  0  0
    5.3184   -5.3313   -9.8213 C   0  0  0  0  0  0  0  0  0  0  0  0
    5.2074   -4.3950  -12.1202 C   0  0  0  0  0  0  0  0  0  0  0  0
    3.6087   -6.1947  -11.4043 C   0  0  0  0  0  0  0  0  0  0  0  0
    0.2498    1.4698   -4.3780 C   0  0  0  0  0  0  0  0  0  0  0  0
    1.1430    2.6746   -4.0561 C   0  0  0  0  0  0  0  0  0  0  0  0
   -1.1708    1.7883   -3.9021 C   0  0  0  0  0  0  0  0  0  0  0  0
    0.7539    0.2388   -3.6117 C   0  0  0  0  0  0  0  0  0  0  0  0
   -4.0683   -0.5433  -13.1598 C   0  0  0  0  0  0  0  0  0  0  0  0
   -3.6103    0.1293  -14.4616 C   0  0  0  0  0  0  0  0  0  0  0  0
   -5.2507    0.2511  -12.5984 C   0  0  0  0  0  0  0  0  0  0  0  0
   -4.5451   -1.9718  -13.4581 C   0  0  0  0  0  0  0  0  0  0  0  0
    5.5628   -4.6738   -5.0876 C   0  0  0  0  0  0  0  0  0  0  0  0
    4.8208   -5.6776   -5.9792 C   0  0  0  0  0  0  0  0  0  0  0  0
    4.5806   -4.0572   -4.0818 C   0  0  0  0  0  0  0  0  0  0  0  0
    6.6411   -5.4329   -4.3081 C   0  0  0  0  0  0  0  0  0  0  0  0
    3.9277    4.9245   -7.6075 C   0  0  0  0  0  0  0  0  0  0  0  0
    4.6017    6.0588   -6.8218 C   0  0  0  0  0  0  0  0  0  0  0  0
    3.8083    5.3174   -9.0863 C   0  0  0  0  0  0  0  0  0  0  0  0
    2.5184    4.7240   -7.0470 C   0  0  0  0  0  0  0  0  0  0  0  0
   13.0212    1.4133   -7.7525 C   0  0  0  0  0  0  0  0  0  0  0  0
   13.3139    2.6476   -6.8876 C   0  0  0  0  0  0  0  0  0  0  0  0
   13.9310    0.2734   -7.2865 C   0  0  0  0  0  0  0  0  0  0  0  0
   13.3489    1.7234   -9.2198 C   0  0  0  0  0  0  0  0  0  0  0  0
   -1.1645    1.9789   -2.8293 H   0  0  0  0  0  0  0  0  0  0  0  0
   -1.8400    0.9536   -4.0954 H   0  0  0  0  0  0  0  0  0  0  0  0
   -1.5592    2.6726   -4.4025 H   0  0  0  0  0  0  0  0  0  0  0  0
    0.7426    0.4268   -2.5385 H   0  0  0  0  0  0  0  0  0  0  0  0
    1.7673   -0.0148   -3.9094 H   0  0  0  0  0  0  0  0  0  0  0  0
    0.1163   -0.6176   -3.8221 H   0  0  0  0  0  0  0  0  0  0  0  0
    1.0982    2.9036   -2.9917 H   0  0  0  0  0  0  0  0  0  0  0  0
    0.8062    3.5478   -4.6121 H   0  0  0  0  0  0  0  0  0  0  0  0
    2.1780    2.4734   -4.3166 H   0  0  0  0  0  0  0  0  0  0  0  0
    1.9444    5.6445   -7.1573 H   0  0  0  0  0  0  0  0  0  0  0  0
    2.5584    4.4739   -5.9902 H   0  0  0  0  0  0  0  0  0  0  0  0
    1.9950    3.9324   -7.5769 H   0  0  0  0  0  0  0  0  0  0  0  0
    4.0044    6.9688   -6.8797 H   0  0  0  0  0  0  0  0  0  0  0  0
    5.5922    6.2714   -7.2147 H   0  0  0  0  0  0  0  0  0  0  0  0
    4.7041    5.7781   -5.7754 H   0  0  0  0  0  0  0  0  0  0  0  0
    3.1997    6.2154   -9.1961 H   0  0  0  0  0  0  0  0  0  0  0  0
    3.3406    4.5085   -9.6429 H   0  0  0  0  0  0  0  0  0  0  0  0
    4.7874    5.5065   -9.5184 H   0  0  0  0  0  0  0  0  0  0  0  0
   14.3675    2.9207   -6.9529 H   0  0  0  0  0  0  0  0  0  0  0  0
   13.0730    2.4384   -5.8472 H   0  0  0  0  0  0  0  0  0  0  0  0
   12.7169    3.4966   -7.2087 H   0  0  0  0  0  0  0  0  0  0  0  0
   14.9757    0.5676   -7.3933 H   0  0  0  0  0  0  0  0  0  0  0  0
   13.7659   -0.6215   -7.8817 H   0  0  0  0  0  0  0  0  0  0  0  0
   13.7492    0.0362   -6.2411 H   0  0  0  0  0  0  0  0  0  0  0  0
   14.4016    1.9859   -9.3304 H   0  0  0  0  0  0  0  0  0  0  0  0
   12.7468    2.5506   -9.5849 H   0  0  0  0  0  0  0  0  0  0  0  0
   13.1406    0.8536   -9.8397 H   0  0  0  0  0  0  0  0  0  0  0  0
    5.9379   -5.1362  -12.4460 H   0  0  0  0  0  0  0  0  0  0  0  0
    5.7362   -3.4993  -11.8030 H   0  0  0  0  0  0  0  0  0  0  0  0
    4.5749   -4.1354  -12.9651 H   0  0  0  0  0  0  0  0  0  0  0  0
    4.3073   -6.9747  -11.7083 H   0  0  0  0  0  0  0  0  0  0  0  0
    2.9523   -5.9747  -12.2417 H   0  0  0  0  0  0  0  0  0  0  0  0
    2.9999   -6.5746  -10.5859 H   0  0  0  0  0  0  0  0  0  0  0  0
    6.0216   -6.0861  -10.1750 H   0  0  0  0  0  0  0  0  0  0  0  0
    4.7641   -5.7488   -8.9848 H   0  0  0  0  0  0  0  0  0  0  0  0
    5.8879   -4.4737   -9.4730 H   0  0  0  0  0  0  0  0  0  0  0  0
    4.4077   -6.4865   -5.3761 H   0  0  0  0  0  0  0  0  0  0  0  0
    5.5055   -6.1054   -6.7096 H   0  0  0  0  0  0  0  0  0  0  0  0
    4.0031   -5.1972   -6.5084 H   0  0  0  0  0  0  0  0  0  0  0  0
    6.1771   -6.2080   -3.6979 H   0  0  0  0  0  0  0  0  0  0  0  0
    7.1857   -4.7613   -3.6493 H   0  0  0  0  0  0  0  0  0  0  0  0
    7.3472   -5.9091   -4.9849 H   0  0  0  0  0  0  0  0  0  0  0  0
    4.1300   -4.8326   -3.4622 H   0  0  0  0  0  0  0  0  0  0  0  0
    3.7892   -3.5184   -4.5944 H   0  0  0  0  0  0  0  0  0  0  0  0
    5.1021   -3.3542   -3.4357 H   0  0  0  0  0  0  0  0  0  0  0  0
   -4.4317    0.1791  -15.1771 H   0  0  0  0  0  0  0  0  0  0  0  0
   -2.7905   -0.4207  -14.9149 H   0  0  0  0  0  0  0  0  0  0  0  0
   -3.2665    1.1412  -14.2564 H   0  0  0  0  0  0  0  0  0  0  0  0
   -5.3856   -1.9584  -14.1527 H   0  0  0  0  0  0  0  0  0  0  0  0
   -4.8628   -2.4576  -12.5376 H   0  0  0  0  0  0  0  0  0  0  0  0
   -3.7458   -2.5640  -13.8949 H   0  0  0  0  0  0  0  0  0  0  0  0
   -6.0606    0.2731  -13.3284 H   0  0  0  0  0  0  0  0  0  0  0  0
   -4.9597    1.2758  -12.3808 H   0  0  0  0  0  0  0  0  0  0  0  0
   -5.6267   -0.2064  -11.6866 H   0  0  0  0  0  0  0  0  0  0  0  0
   -3.7784    0.5000  -10.5568 H   0  0  0  0  0  0  0  0  0  0  0  0
   -1.6470   -1.7787  -13.5077 H   0  0  0  0  0  0  0  0  0  0  0  0
    2.3407   -3.8261  -12.4403 H   0  0  0  0  0  0  0  0  0  0  0  0
    4.0950   -3.5791   -8.5702 H   0  0  0  0  0  0  0  0  0  0  0  0
   -1.7868    1.4523   -6.3476 H   0  0  0  0  0  0  0  0  0  0  0  0
    2.4289    0.8772   -5.8587 H   0  0  0  0  0  0  0  0  0  0  0  0
    3.2990    2.4019   -6.6852 H   0  0  0  0  0  0  0  0  0  0  0  0
    6.5544    4.5848   -8.3434 H   0  0  0  0  0  0  0  0  0  0  0  0
   10.8598    2.9657   -8.4027 H   0  0  0  0  0  0  0  0  0  0  0  0
   11.7516   -0.9175   -6.8000 H   0  0  0  0  0  0  0  0  0  0  0  0
    8.2437   -3.8418   -5.4851 H   0  0  0  0  0  0  0  0  0  0  0  0
    4.2333   -2.9879   -6.7244 H   0  0  0  0  0  0  0  0  0  0  0  0
   -5.5911   -1.8953   14.3285 C   0  0  0  0  0  0  0  0  0  0  0  0
   -5.5158   -0.6380   14.9245 C   0  0  0  0  0  0  0  0  0  0  0  0
   -6.6998    0.1691   14.9932 C   0  0  0  0  0  0  0  0  0  0  0  0
   -7.8761   -0.4195   14.4473 C   0  0  0  0  0  0  0  0  0  0  0  0
   -7.8693   -1.6578   13.8101 C   0  0  0  0  0  0  0  0  0  0  0  0
   -6.7282   -2.4229   13.7326 C   0  0  0  0  0  0  0  0  0  0  0  0
   -6.8411    1.4511   15.6370 C   0  0  0  0  0  0  0  0  0  0  0  0
   -8.1350    1.9183   15.9719 C   0  0  0  0  0  0  0  0  0  0  0  0
   -9.3019    1.3565   15.4035 C   0  0  0  0  0  0  0  0  0  0  0  0
   -9.1933    0.2089   14.5165 C   0  0  0  0  0  0  0  0  0  0  0  0
   -5.7501    2.2649   16.0718 C   0  0  0  0  0  0  0  0  0  0  0  0
   -5.9073    3.1757   17.1451 C   0  0  0  0  0  0  0  0  0  0  0  0
   -7.2242    3.5674   17.6184 C   0  0  0  0  0  0  0  0  0  0  0  0
   -8.3420    2.9878   16.8820 C   0  0  0  0  0  0  0  0  0  0  0  0
   -9.6193    3.4690   17.1450 C   0  0  0  0  0  0  0  0  0  0  0  0
  -10.7513    2.9508   16.5347 C   0  0  0  0  0  0  0  0  0  0  0  0
  -10.5574    1.8800   15.6706 C   0  0  0  0  0  0  0  0  0  0  0  0
   -4.4604    2.1754   15.4953 C   0  0  0  0  0  0  0  0  0  0  0  0
   -3.3733    2.5836   16.2638 C   0  0  0  0  0  0  0  0  0  0  0  0
   -3.5140    3.3511   17.4171 C   0  0  0  0  0  0  0  0  0  0  0  0
   -4.7937    3.7265   17.7776 C   0  0  0  0  0  0  0  0  0  0  0  0
   -4.2735   -0.2910   15.3941 O   0  0  0  0  0  0  0  0  0  0  0  0
   -4.3172    1.6895   14.2358 O   0  0  0  0  0  0  0  0  0  0  0  0
   -3.5353    0.4515   14.2570 B   0  0  0  0  0  0  0  0  0  0  0  0
   -2.3639   -2.2262   14.3066 C   0  0  0  0  0  0  0  0  0  0  0  0
   -2.4625   -1.3287   13.2488 C   0  0  0  0  0  0  0  0  0  0  0  0
   -1.4206   -1.3263   12.2908 C   0  0  0  0  0  0  0  0  0  0  0  0
   -0.6365   -2.4980   12.1862 C   0  0  0  0  0  0  0  0  0  0  0  0
   -0.6803   -3.4711   13.1856 C   0  0  0  0  0  0  0  0  0  0  0  0
   -1.4558   -3.2866   14.3125 C   0  0  0  0  0  0  0  0  0  0  0  0
   -1.1298   -0.1748   11.5020 C   0  0  0  0  0  0  0  0  0  0  0  0
   -0.3979   -0.4108   10.3090 C   0  0  0  0  0  0  0  0  0  0  0  0
    0.2201   -1.6570   10.0390 C   0  0  0  0  0  0  0  0  0  0  0  0
   -1.4082    1.1790   11.9050 C   0  0  0  0  0  0  0  0  0  0  0  0
   -1.2026    2.1971   10.9317 C   0  0  0  0  0  0  0  0  0  0  0  0
   -0.7950    1.9158    9.5528 C   0  0  0  0  0  0  0  0  0  0  0  0
   -0.2668    0.5803    9.3121 C   0  0  0  0  0  0  0  0  0  0  0  0
    0.3663    0.3099    8.1082 C   0  0  0  0  0  0  0  0  0  0  0  0
    0.9449   -0.9236    7.8328 C   0  0  0  0  0  0  0  0  0  0  0  0
    0.8750   -1.8821    8.8328 C   0  0  0  0  0  0  0  0  0  0  0  0
   -1.7540    1.6376   13.2220 C   0  0  0  0  0  0  0  0  0  0  0  0
   -1.8037    3.0114   13.4565 C   0  0  0  0  0  0  0  0  0  0  0  0
   -1.6249    3.9907   12.4916 C   0  0  0  0  0  0  0  0  0  0  0  0
   -1.3447    3.5509   11.2162 C   0  0  0  0  0  0  0  0  0  0  0  0
   -2.0368    0.8559   14.3082 O   0  0  0  0  0  0  0  0  0  0  0  0
   -3.4872   -0.4537   13.1049 O   0  0  0  0  0  0  0  0  0  0  0  0
    0.2462   -2.7128   11.0490 C   0  0  0  0  0  0  0  0  0  0  0  0
   -0.8182    2.7778    8.6674 O   0  0  0  0  0  0  0  0  0  0  0  0
    0.9502   -3.7248   10.9289 O   0  0  0  0  0  0  0  0  0  0  0  0
  -10.1803   -0.2431   13.9177 O   0  0  0  0  0  0  0  0  0  0  0  0
   -7.3941    4.3560   18.5623 O   0  0  0  0  0  0  0  0  0  0  0  0
   -6.7444   -3.7513   12.9926 C   0  0  0  0  0  0  0  0  0  0  0  0
   -5.3865   -4.4562   13.0051 C   0  0  0  0  0  0  0  0  0  0  0  0
   -7.1326   -3.4835   11.5322 C   0  0  0  0  0  0  0  0  0  0  0  0
   -7.7799   -4.6813   13.6418 C   0  0  0  0  0  0  0  0  0  0  0  0
   -2.3256    3.8008   18.2558 C   0  0  0  0  0  0  0  0  0  0  0  0
   -2.2747    5.3352   18.2840 C   0  0  0  0  0  0  0  0  0  0  0  0
   -2.5075    3.2672   19.6842 C   0  0  0  0  0  0  0  0  0  0  0  0
   -0.9889    3.2831   17.7189 C   0  0  0  0  0  0  0  0  0  0  0  0
  -12.1567    3.4807   16.7769 C   0  0  0  0  0  0  0  0  0  0  0  0
  -12.7589    3.9326   15.4391 C   0  0  0  0  0  0  0  0  0  0  0  0
  -12.1760    4.6719   17.7387 C   0  0  0  0  0  0  0  0  0  0  0  0
  -13.0187    2.3607   17.3766 C   0  0  0  0  0  0  0  0  0  0  0  0
   -1.3576   -4.1692   15.5486 C   0  0  0  0  0  0  0  0  0  0  0  0
   -2.7178   -4.8090   15.8542 C   0  0  0  0  0  0  0  0  0  0  0  0
   -0.9267   -3.2893   16.7305 C   0  0  0  0  0  0  0  0  0  0  0  0
   -0.3291   -5.2920   15.3809 C   0  0  0  0  0  0  0  0  0  0  0  0
   -1.7676    5.4771   12.7784 C   0  0  0  0  0  0  0  0  0  0  0  0
   -0.4860    6.2044   12.3461 C   0  0  0  0  0  0  0  0  0  0  0  0
   -2.9611    6.0077   11.9730 C   0  0  0  0  0  0  0  0  0  0  0  0
   -2.0131    5.7760   14.2597 C   0  0  0  0  0  0  0  0  0  0  0  0
    1.6202   -1.1572    6.4904 C   0  0  0  0  0  0  0  0  0  0  0  0
    2.7600   -0.1437    6.3164 C   0  0  0  0  0  0  0  0  0  0  0  0
    2.2064   -2.5661    6.3662 C   0  0  0  0  0  0  0  0  0  0  0  0
    0.5854   -0.9648    5.3731 C   0  0  0  0  0  0  0  0  0  0  0  0
   -1.6775    3.5786   20.3196 H   0  0  0  0  0  0  0  0  0  0  0  0
   -2.5459    2.1801   19.6695 H   0  0  0  0  0  0  0  0  0  0  0  0
   -3.4336    3.6331   20.1191 H   0  0  0  0  0  0  0  0  0  0  0  0
   -0.1795    3.6021   18.3770 H   0  0  0  0  0  0  0  0  0  0  0  0
   -0.7889    3.6730   16.7243 H   0  0  0  0  0  0  0  0  0  0  0  0
   -0.9840    2.1973   17.6722 H   0  0  0  0  0  0  0  0  0  0  0  0
   -1.4277    5.6779   18.8794 H   0  0  0  0  0  0  0  0  0  0  0  0
   -3.1849    5.7463   18.7119 H   0  0  0  0  0  0  0  0  0  0  0  0
   -2.1688    5.7237   17.2737 H   0  0  0  0  0  0  0  0  0  0  0  0
   -2.1069    6.8526   14.4065 H   0  0  0  0  0  0  0  0  0  0  0  0
   -1.1814    5.4223   14.8661 H   0  0  0  0  0  0  0  0  0  0  0  0
   -2.9297    5.3050   14.6060 H   0  0  0  0  0  0  0  0  0  0  0  0
   -0.5715    7.2738   12.5397 H   0  0  0  0  0  0  0  0  0  0  0  0
   -0.2954    6.0614   11.2865 H   0  0  0  0  0  0  0  0  0  0  0  0
    0.3683    5.8188   12.8998 H   0  0  0  0  0  0  0  0  0  0  0  0
   -3.1000    7.0746   12.1496 H   0  0  0  0  0  0  0  0  0  0  0  0
   -3.8663    5.4833   12.2702 H   0  0  0  0  0  0  0  0  0  0  0  0
   -2.8099    5.8484   10.9089 H   0  0  0  0  0  0  0  0  0  0  0  0
    3.2587   -0.2941    5.3597 H   0  0  0  0  0  0  0  0  0  0  0  0
    3.4925   -0.2635    7.1127 H   0  0  0  0  0  0  0  0  0  0  0  0
    2.3845    0.8752    6.3508 H   0  0  0  0  0  0  0  0  0  0  0  0
    2.6703   -2.6849    5.3876 H   0  0  0  0  0  0  0  0  0  0  0  0
    1.4290   -3.3197    6.4673 H   0  0  0  0  0  0  0  0  0  0  0  0
    2.9652   -2.7401    7.1257 H   0  0  0  0  0  0  0  0  0  0  0  0
    1.0445   -1.1215    4.3980 H   0  0  0  0  0  0  0  0  0  0  0  0
    0.1659    0.0369    5.3985 H   0  0  0  0  0  0  0  0  0  0  0  0
   -0.2292   -1.6766    5.4916 H   0  0  0  0  0  0  0  0  0  0  0  0
   -7.1525   -4.4139   10.9643 H   0  0  0  0  0  0  0  0  0  0  0  0
   -6.4067   -2.8134   11.0779 H   0  0  0  0  0  0  0  0  0  0  0  0
   -8.1121   -3.0172   11.4686 H   0  0  0  0  0  0  0  0  0  0  0  0
   -7.8168   -5.6358   13.1165 H   0  0  0  0  0  0  0  0  0  0  0  0
   -8.7707   -4.2360   13.6180 H   0  0  0  0  0  0  0  0  0  0  0  0
   -7.5154   -4.8677   14.6813 H   0  0  0  0  0  0  0  0  0  0  0  0
   -5.4477   -5.3825   12.4332 H   0  0  0  0  0  0  0  0  0  0  0  0
   -5.0901   -4.7034   14.0212 H   0  0  0  0  0  0  0  0  0  0  0  0
   -4.6187   -3.8311   12.5568 H   0  0  0  0  0  0  0  0  0  0  0  0
   -2.6503   -5.4413   16.7403 H   0  0  0  0  0  0  0  0  0  0  0  0
   -3.0362   -5.4238   15.0144 H   0  0  0  0  0  0  0  0  0  0  0  0
   -3.4731   -4.0496   16.0344 H   0  0  0  0  0  0  0  0  0  0  0  0
   -0.2722   -5.8802   16.2975 H   0  0  0  0  0  0  0  0  0  0  0  0
    0.6575   -4.8846   15.1748 H   0  0  0  0  0  0  0  0  0  0  0  0
   -0.6102   -5.9563   14.5670 H   0  0  0  0  0  0  0  0  0  0  0  0
   -0.8555   -3.8813   17.6437 H   0  0  0  0  0  0  0  0  0  0  0  0
   -1.6383   -2.4849   16.8914 H   0  0  0  0  0  0  0  0  0  0  0  0
    0.0448   -2.8435   16.5266 H   0  0  0  0  0  0  0  0  0  0  0  0
  -13.7706    4.3134   15.5827 H   0  0  0  0  0  0  0  0  0  0  0  0
  -12.7977    3.1082   14.7328 H   0  0  0  0  0  0  0  0  0  0  0  0
  -12.1490    4.7217   15.0040 H   0  0  0  0  0  0  0  0  0  0  0  0
  -14.0355    2.7122   17.5549 H   0  0  0  0  0  0  0  0  0  0  0  0
  -12.5942    2.0298   18.3226 H   0  0  0  0  0  0  0  0  0  0  0  0
  -13.0615    1.5059   16.7075 H   0  0  0  0  0  0  0  0  0  0  0  0
  -13.1998    5.0242   17.8701 H   0  0  0  0  0  0  0  0  0  0  0  0
  -11.5801    5.4929   17.3472 H   0  0  0  0  0  0  0  0  0  0  0  0
  -11.7849    4.3900   18.7133 H   0  0  0  0  0  0  0  0  0  0  0  0
   -9.6755    4.2755   17.8608 H   0  0  0  0  0  0  0  0  0  0  0  0
  -11.3874    1.4019   15.1684 H   0  0  0  0  0  0  0  0  0  0  0  0
   -8.8111   -1.9828   13.3916 H   0  0  0  0  0  0  0  0  0  0  0  0
   -4.6830   -2.4656   14.2989 H   0  0  0  0  0  0  0  0  0  0  0  0
   -4.9899    4.4077   18.5931 H   0  0  0  0  0  0  0  0  0  0  0  0
   -2.4047    2.2423   15.9493 H   0  0  0  0  0  0  0  0  0  0  0  0
   -2.0434    3.3137   14.4569 H   0  0  0  0  0  0  0  0  0  0  0  0
   -1.2038    4.2311   10.3887 H   0  0  0  0  0  0  0  0  0  0  0  0
    0.3940    1.1184    7.3914 H   0  0  0  0  0  0  0  0  0  0  0  0
    1.3302   -2.8546    8.7214 H   0  0  0  0  0  0  0  0  0  0  0  0
   -0.0376   -4.3262   13.0478 H   0  0  0  0  0  0  0  0  0  0  0  0
   -2.9900   -2.0497   15.1647 H   0  0  0  0  0  0  0  0  0  0  0  0
  1  2  2  0  0  0  0
  1133  1  0  0  0  0
  2  3  1  0  0  0  0
  2 22  1  0  0  0  0
  3  4  2  0  0  0  0
  3  7  1  0  0  0  0
  4  5  1  0  0  0  0
  5  6  2  0  0  0  0
  5132  1  0  0  0  0
  6 52  1  0  0  0  0
  6  1  1  0  0  0  0
  7  8  1  0  0  0  0
  7 11  1  0  0  0  0
  8  9  2  0  0  0  0
  9 10  1  0  0  0  0
 10  4  1  0  0  0  0
 10 50  2  0  0  0  0
 11 12  2  0  0  0  0
 11 18  1  0  0  0  0
 13 14  1  0  0  0  0
 13 12  1  0  0  0  0
 13 51  2  0  0  0  0
 14  8  1  0  0  0  0
 14 15  2  0  0  0  0
 15 16  1  0  0  0  0
 15130  1  0  0  0  0
 16 60  1  0  0  0  0
 16 17  2  0  0  0  0
 17  9  1  0  0  0  0
 17131  1  0  0  0  0
 18 19  2  0  0  0  0
 18 23  1  0  0  0  0
 19 20  1  0  0  0  0
 19135  1  0  0  0  0
 20 56  1  0  0  0  0
 20 21  2  0  0  0  0
 21 12  1  0  0  0  0
 21134  1  0  0  0  0
 24 23  1  0  0  0  0
 24 22  1  0  0  0  0
 25 26  2  0  0  0  0
 25141  1  0  0  0  0
 26 27  1  0  0  0  0
 26 46  1  0  0  0  0
 27 28  2  0  0  0  0
 27 31  1  0  0  0  0
 28 29  1  0  0  0  0
 28 47  1  0  0  0  0
 29 30  2  0  0  0  0
 29140  1  0  0  0  0
 30 64  1  0  0  0  0
 30 25  1  0  0  0  0
 31 32  1  0  0  0  0
 32 33  2  0  0  0  0
 34 35  2  0  0  0  0
 34 41  1  0  0  0  0
 34 31  1  0  0  0  0
 36 37  1  0  0  0  0
 36 35  1  0  0  0  0
 36 48  2  0  0  0  0
 37 32  1  0  0  0  0
 37 38  2  0  0  0  0
 38 39  1  0  0  0  0
 38138  1  0  0  0  0
 39 72  1  0  0  0  0
 39 40  2  0  0  0  0
 40 33  1  0  0  0  0
 40139  1  0  0  0  0
 41 42  2  0  0  0  0
 41 45  1  0  0  0  0
 42 43  1  0  0  0  0
 42136  1  0  0  0  0
 43 68  1  0  0  0  0
 43 44  2  0  0  0  0
 44 35  1  0  0  0  0
 44137  1  0  0  0  0
 45 24  1  0  0  0  0
 46 24  1  0  0  0  0
 47 33  1  0  0  0  0
 47 49  2  0  0  0  0
 52 53  1  0  0  0  0
 52 54  1  0  0  0  0
 52 55  1  0  0  0  0
 53109  1  0  0  0  0
 53110  1  0  0  0  0
 53111  1  0  0  0  0
 54103  1  0  0  0  0
 54104  1  0  0  0  0
 54105  1  0  0  0  0
 55106  1  0  0  0  0
 55107  1  0  0  0  0
 55108  1  0  0  0  0
 56 57  1  0  0  0  0
 56 58  1  0  0  0  0
 56 59  1  0  0  0  0
 57 82  1  0  0  0  0
 57 83  1  0  0  0  0
 57 84  1  0  0  0  0
 58 76  1  0  0  0  0
 58 77  1  0  0  0  0
 58 78  1  0  0  0  0
 59 79  1  0  0  0  0
 59 80  1  0  0  0  0
 59 81  1  0  0  0  0
 60 61  1  0  0  0  0
 60 62  1  0  0  0  0
 60 63  1  0  0  0  0
 61121  1  0  0  0  0
 61122  1  0  0  0  0
 61123  1  0  0  0  0
 62127  1  0  0  0  0
 62128  1  0  0  0  0
 62129  1  0  0  0  0
 63124  1  0  0  0  0
 63125  1  0  0  0  0
 63126  1  0  0  0  0
 64 65  1  0  0  0  0
 64 66  1  0  0  0  0
 64 67  1  0  0  0  0
 65112  1  0  0  0  0
 65113  1  0  0  0  0
 65114  1  0  0  0  0
 66118  1  0  0  0  0
 66119  1  0  0  0  0
 66120  1  0  0  0  0
 67115  1  0  0  0  0
 67116  1  0  0  0  0
 67117  1  0  0  0  0
 68 69  1  0  0  0  0
 68 70  1  0  0  0  0
 68 71  1  0  0  0  0
 69 88  1  0  0  0  0
 69 89  1  0  0  0  0
 69 90  1  0  0  0  0
 70 91  1  0  0  0  0
 70 92  1  0  0  0  0
 70 93  1  0  0  0  0
 71 85  1  0  0  0  0
 71 86  1  0  0  0  0
 71 87  1  0  0  0  0
 72 73  1  0  0  0  0
 72 74  1  0  0  0  0
 72 75  1  0  0  0  0
 73 94  1  0  0  0  0
 73 95  1  0  0  0  0
 73 96  1  0  0  0  0
 74 97  1  0  0  0  0
 74 98  1  0  0  0  0
 74 99  1  0  0  0  0
 75100  1  0  0  0  0
 75101  1  0  0  0  0
 75102  1  0  0  0  0
142143  2  0  0  0  0
142274  1  0  0  0  0
143144  1  0  0  0  0
143163  1  0  0  0  0
144145  2  0  0  0  0
144148  1  0  0  0  0
145146  1  0  0  0  0
146147  2  0  0  0  0
146273  1  0  0  0  0
147193  1  0  0  0  0
147142  1  0  0  0  0
148149  1  0  0  0  0
148152  1  0  0  0  0
149150  2  0  0  0  0
150151  1  0  0  0  0
151145  1  0  0  0  0
151191  2  0  0  0  0
152153  2  0  0  0  0
152159  1  0  0  0  0
154155  1  0  0  0  0
154153  1  0  0  0  0
154192  2  0  0  0  0
155149  1  0  0  0  0
155156  2  0  0  0  0
156157  1  0  0  0  0
156271  1  0  0  0  0
157201  1  0  0  0  0
157158  2  0  0  0  0
158150  1  0  0  0  0
158272  1  0  0  0  0
159160  2  0  0  0  0
159164  1  0  0  0  0
160161  1  0  0  0  0
160276  1  0  0  0  0
161197  1  0  0  0  0
161162  2  0  0  0  0
162153  1  0  0  0  0
162275  1  0  0  0  0
165164  1  0  0  0  0
165163  1  0  0  0  0
166167  2  0  0  0  0
166282  1  0  0  0  0
167168  1  0  0  0  0
167187  1  0  0  0  0
168169  2  0  0  0  0
168172  1  0  0  0  0
169170  1  0  0  0  0
169188  1  0  0  0  0
170171  2  0  0  0  0
170281  1  0  0  0  0
171205  1  0  0  0  0
171166  1  0  0  0  0
172173  1  0  0  0  0
173174  2  0  0  0  0
175176  2  0  0  0  0
175182  1  0  0  0  0
175172  1  0  0  0  0
177178  1  0  0  0  0
177176  1  0  0  0  0
177189  2  0  0  0  0
178173  1  0  0  0  0
178179  2  0  0  0  0
179180  1  0  0  0  0
179279  1  0  0  0  0
180213  1  0  0  0  0
180181  2  0  0  0  0
181174  1  0  0  0  0
181280  1  0  0  0  0
182183  2  0  0  0  0
182186  1  0  0  0  0
183184  1  0  0  0  0
183277  1  0  0  0  0
184209  1  0  0  0  0
184185  2  0  0  0  0
185176  1  0  0  0  0
185278  1  0  0  0  0
186165  1  0  0  0  0
187165  1  0  0  0  0
188174  1  0  0  0  0
188190  2  0  0  0  0
193194  1  0  0  0  0
193195  1  0  0  0  0
193196  1  0  0  0  0
194250  1  0  0  0  0
194251  1  0  0  0  0
194252  1  0  0  0  0
195244  1  0  0  0  0
195245  1  0  0  0  0
195246  1  0  0  0  0
196247  1  0  0  0  0
196248  1  0  0  0  0
196249  1  0  0  0  0
197198  1  0  0  0  0
197199  1  0  0  0  0
197200  1  0  0  0  0
198223  1  0  0  0  0
198224  1  0  0  0  0
198225  1  0  0  0  0
199217  1  0  0  0  0
199218  1  0  0  0  0
199219  1  0  0  0  0
200220  1  0  0  0  0
200221  1  0  0  0  0
200222  1  0  0  0  0
201202  1  0  0  0  0
201203  1  0  0  0  0
201204  1  0  0  0  0
202262  1  0  0  0  0
202263  1  0  0  0  0
202264  1  0  0  0  0
203268  1  0  0  0  0
203269  1  0  0  0  0
203270  1  0  0  0  0
204265  1  0  0  0  0
204266  1  0  0  0  0
204267  1  0  0  0  0
205206  1  0  0  0  0
205207  1  0  0  0  0
205208  1  0  0  0  0
206253  1  0  0  0  0
206254  1  0  0  0  0
206255  1  0  0  0  0
207259  1  0  0  0  0
207260  1  0  0  0  0
207261  1  0  0  0  0
208256  1  0  0  0  0
208257  1  0  0  0  0
208258  1  0  0  0  0
209210  1  0  0  0  0
209211  1  0  0  0  0
209212  1  0  0  0  0
210229  1  0  0  0  0
210230  1  0  0  0  0
210231  1  0  0  0  0
211232  1  0  0  0  0
211233  1  0  0  0  0
211234  1  0  0  0  0
212226  1  0  0  0  0
212227  1  0  0  0  0
212228  1  0  0  0  0
213214  1  0  0  0  0
213215  1  0  0  0  0
213216  1  0  0  0  0
214235  1  0  0  0  0
214236  1  0  0  0  0
214237  1  0  0  0  0
215238  1  0  0  0  0
215239  1  0  0  0  0
215240  1  0  0  0  0
216241  1  0  0  0  0
216242  1  0  0  0  0
216243  1  0  0  0  0
M  CHG  1  24  -1
M  CHG  1  31  -1
M  CHG  1 165  -1
M  CHG  1 172  -1
M  END
