 xtb: 6.7.1 (edcfbbe)
          12102414583D

141152  0     0  0            999 V2000
   -1.2382   -2.5100   -1.1830 C   0  0  0  0  0  0  0  0  0  0  0  0
   -1.7743   -1.4108   -0.5128 C   0  0  0  0  0  0  0  0  0  0  0  0
   -2.9329   -0.7665   -1.0586 C   0  0  0  0  0  0  0  0  0  0  0  0
   -3.4691   -1.3590   -2.2372 C   0  0  0  0  0  0  0  0  0  0  0  0
   -2.8552   -2.4266   -2.8856 C   0  0  0  0  0  0  0  0  0  0  0  0
   -1.7187   -3.0182   -2.3811 C   0  0  0  0  0  0  0  0  0  0  0  0
   -3.6486    0.3482   -0.4916 C   0  0  0  0  0  0  0  0  0  0  0  0
   -4.9854    0.5859   -0.9029 C   0  0  0  0  0  0  0  0  0  0  0  0
   -5.5224    0.0021   -2.0733 C   0  0  0  0  0  0  0  0  0  0  0  0
   -4.7118   -0.9126   -2.8628 C   0  0  0  0  0  0  0  0  0  0  0  0
   -3.1449    1.1933    0.5448 C   0  0  0  0  0  0  0  0  0  0  0  0
   -4.0337    1.8897    1.4020 C   0  0  0  0  0  0  0  0  0  0  0  0
   -5.4476    2.0250    1.0890 C   0  0  0  0  0  0  0  0  0  0  0  0
   -5.8617    1.4322   -0.1776 C   0  0  0  0  0  0  0  0  0  0  0  0
   -7.1580    1.6742   -0.6179 C   0  0  0  0  0  0  0  0  0  0  0  0
   -7.6617    1.1270   -1.7877 C   0  0  0  0  0  0  0  0  0  0  0  0
   -6.8113    0.2880   -2.4973 C   0  0  0  0  0  0  0  0  0  0  0  0
   -1.7600    1.3460    0.8051 C   0  0  0  0  0  0  0  0  0  0  0  0
   -1.3787    1.7600    2.0809 C   0  0  0  0  0  0  0  0  0  0  0  0
   -2.2682    2.3230    2.9902 C   0  0  0  0  0  0  0  0  0  0  0  0
   -3.5805    2.4703    2.5841 C   0  0  0  0  0  0  0  0  0  0  0  0
   -1.1208   -1.0408    0.6327 O   0  0  0  0  0  0  0  0  0  0  0  0
   -0.8471    1.0839   -0.1663 O   0  0  0  0  0  0  0  0  0  0  0  0
    0.0016   -0.0484    0.2346 B   0  0  0  0  0  0  0  0  0  0  0  0
    1.3069   -2.5992    0.7912 C   0  0  0  0  0  0  0  0  0  0  0  0
    1.7422   -1.5470   -0.0072 C   0  0  0  0  0  0  0  0  0  0  0  0
    3.1364   -1.3032   -0.0712 C   0  0  0  0  0  0  0  0  0  0  0  0
    3.9915   -2.3747    0.2810 C   0  0  0  0  0  0  0  0  0  0  0  0
    3.4941   -3.5028    0.9365 C   0  0  0  0  0  0  0  0  0  0  0  0
    2.1656   -3.5760    1.2975 C   0  0  0  0  0  0  0  0  0  0  0  0
    3.6706   -0.0271   -0.4246 C   0  0  0  0  0  0  0  0  0  0  0  0
    5.0196   -0.0139   -0.8600 C   0  0  0  0  0  0  0  0  0  0  0  0
    5.8690   -1.1403   -0.7194 C   0  0  0  0  0  0  0  0  0  0  0  0
    2.9772    1.2237   -0.2545 C   0  0  0  0  0  0  0  0  0  0  0  0
    3.5653    2.3799   -0.8414 C   0  0  0  0  0  0  0  0  0  0  0  0
    4.8105    2.3422   -1.6070 C   0  0  0  0  0  0  0  0  0  0  0  0
    5.5925    1.1220   -1.4760 C   0  0  0  0  0  0  0  0  0  0  0  0
    6.8926    1.1013   -1.9578 C   0  0  0  0  0  0  0  0  0  0  0  0
    7.7169   -0.0102   -1.8304 C   0  0  0  0  0  0  0  0  0  0  0  0
    7.1771   -1.1145   -1.1888 C   0  0  0  0  0  0  0  0  0  0  0  0
    1.8041    1.4566    0.5385 C   0  0  0  0  0  0  0  0  0  0  0  0
    1.3405    2.7635    0.6778 C   0  0  0  0  0  0  0  0  0  0  0  0
    1.8986    3.8751    0.0635 C   0  0  0  0  0  0  0  0  0  0  0  0
    3.0162    3.6522   -0.7091 C   0  0  0  0  0  0  0  0  0  0  0  0
    1.0772    0.5030    1.2007 O   0  0  0  0  0  0  0  0  0  0  0  0
    0.8870   -0.7515   -0.7033 O   0  0  0  0  0  0  0  0  0  0  0  0
    5.4150   -2.3349   -0.0133 C   0  0  0  0  0  0  0  0  0  0  0  0
    5.2189    3.3096   -2.2638 O   0  0  0  0  0  0  0  0  0  0  0  0
    6.1898   -3.2554    0.2862 O   0  0  0  0  0  0  0  0  0  0  0  0
   -5.0927   -1.3330   -3.9640 O   0  0  0  0  0  0  0  0  0  0  0  0
   -6.2445    2.6216    1.8282 O   0  0  0  0  0  0  0  0  0  0  0  0
   -1.0392   -4.1479   -3.1388 C   0  0  0  0  0  0  0  0  0  0  0  0
    0.2320   -4.6465   -2.4482 C   0  0  0  0  0  0  0  0  0  0  0  0
   -0.6545   -3.6311   -4.5320 C   0  0  0  0  0  0  0  0  0  0  0  0
   -2.0157   -5.3250   -3.2745 C   0  0  0  0  0  0  0  0  0  0  0  0
   -1.8422    2.7972    4.3722 C   0  0  0  0  0  0  0  0  0  0  0  0
   -2.1223    4.3019    4.4978 C   0  0  0  0  0  0  0  0  0  0  0  0
   -2.6586    2.0335    5.4246 C   0  0  0  0  0  0  0  0  0  0  0  0
   -0.3562    2.5579    4.6507 C   0  0  0  0  0  0  0  0  0  0  0  0
   -9.0668    1.3946   -2.3051 C   0  0  0  0  0  0  0  0  0  0  0  0
   -8.9714    2.0427   -3.6934 C   0  0  0  0  0  0  0  0  0  0  0  0
   -9.8598    2.3312   -1.3896 C   0  0  0  0  0  0  0  0  0  0  0  0
   -9.8266    0.0648   -2.4089 C   0  0  0  0  0  0  0  0  0  0  0  0
    1.5979   -4.6583    2.2043 C   0  0  0  0  0  0  0  0  0  0  0  0
    0.5106   -5.4466    1.4624 C   0  0  0  0  0  0  0  0  0  0  0  0
    0.9891   -3.9848    3.4418 C   0  0  0  0  0  0  0  0  0  0  0  0
    2.6714   -5.6466    2.6705 C   0  0  0  0  0  0  0  0  0  0  0  0
    1.3115    5.2725    0.1868 C   0  0  0  0  0  0  0  0  0  0  0  0
    2.3907    6.2346    0.7047 C   0  0  0  0  0  0  0  0  0  0  0  0
    0.8440    5.7197   -1.2048 C   0  0  0  0  0  0  0  0  0  0  0  0
    0.1162    5.3339    1.1413 C   0  0  0  0  0  0  0  0  0  0  0  0
    9.1387    0.0368   -2.3693 C   0  0  0  0  0  0  0  0  0  0  0  0
    9.9048    1.1647   -1.6638 C   0  0  0  0  0  0  0  0  0  0  0  0
    9.8953   -1.2746   -2.1412 C   0  0  0  0  0  0  0  0  0  0  0  0
    9.0935    0.3112   -3.8790 C   0  0  0  0  0  0  0  0  0  0  0  0
   -2.3871    2.3573    6.4298 H   0  0  0  0  0  0  0  0  0  0  0  0
   -2.4656    0.9664    5.3386 H   0  0  0  0  0  0  0  0  0  0  0  0
   -3.7234    2.1981    5.2833 H   0  0  0  0  0  0  0  0  0  0  0  0
   -0.1141    2.8876    5.6617 H   0  0  0  0  0  0  0  0  0  0  0  0
    0.2675    3.1138    3.9551 H   0  0  0  0  0  0  0  0  0  0  0  0
   -0.1105    1.5025    4.5677 H   0  0  0  0  0  0  0  0  0  0  0  0
   -1.8146    4.6660    5.4783 H   0  0  0  0  0  0  0  0  0  0  0  0
   -3.1803    4.5129    4.3693 H   0  0  0  0  0  0  0  0  0  0  0  0
   -1.5725    4.8493    3.7354 H   0  0  0  0  0  0  0  0  0  0  0  0
   -0.2641    6.3547    1.1887 H   0  0  0  0  0  0  0  0  0  0  0  0
    0.4099    5.0346    2.1453 H   0  0  0  0  0  0  0  0  0  0  0  0
   -0.6895    4.6877    0.8026 H   0  0  0  0  0  0  0  0  0  0  0  0
    1.9880    7.2433    0.7978 H   0  0  0  0  0  0  0  0  0  0  0  0
    3.2420    6.2654    0.0306 H   0  0  0  0  0  0  0  0  0  0  0  0
    2.7429    5.9103    1.6822 H   0  0  0  0  0  0  0  0  0  0  0  0
    0.4206    6.7235   -1.1639 H   0  0  0  0  0  0  0  0  0  0  0  0
    0.0842    5.0346   -1.5737 H   0  0  0  0  0  0  0  0  0  0  0  0
    1.6723    5.7198   -1.9085 H   0  0  0  0  0  0  0  0  0  0  0  0
   10.9287    1.2216   -2.0337 H   0  0  0  0  0  0  0  0  0  0  0  0
    9.9326    0.9821   -0.5913 H   0  0  0  0  0  0  0  0  0  0  0  0
    9.4241    2.1244   -1.8314 H   0  0  0  0  0  0  0  0  0  0  0  0
   10.9037   -1.1941   -2.5480 H   0  0  0  0  0  0  0  0  0  0  0  0
    9.3931   -2.1022   -2.6364 H   0  0  0  0  0  0  0  0  0  0  0  0
    9.9733   -1.4975   -1.0798 H   0  0  0  0  0  0  0  0  0  0  0  0
   10.1021    0.3538   -4.2906 H   0  0  0  0  0  0  0  0  0  0  0  0
    8.5959    1.2541   -4.0876 H   0  0  0  0  0  0  0  0  0  0  0  0
    8.5448   -0.4804   -4.3853 H   0  0  0  0  0  0  0  0  0  0  0  0
   -0.1572   -4.4134   -5.1058 H   0  0  0  0  0  0  0  0  0  0  0  0
    0.0231   -2.7863   -4.4341 H   0  0  0  0  0  0  0  0  0  0  0  0
   -1.5315   -3.3022   -5.0828 H   0  0  0  0  0  0  0  0  0  0  0  0
   -1.5545   -6.1405   -3.8316 H   0  0  0  0  0  0  0  0  0  0  0  0
   -2.9206   -5.0205   -3.7935 H   0  0  0  0  0  0  0  0  0  0  0  0
   -2.2960   -5.6935   -2.2894 H   0  0  0  0  0  0  0  0  0  0  0  0
    0.7005   -5.4215   -3.0554 H   0  0  0  0  0  0  0  0  0  0  0  0
    0.0034   -5.0715   -1.4746 H   0  0  0  0  0  0  0  0  0  0  0  0
    0.9465   -3.8378   -2.3181 H   0  0  0  0  0  0  0  0  0  0  0  0
    0.1013   -6.2270    2.1046 H   0  0  0  0  0  0  0  0  0  0  0  0
    0.9313   -5.9160    0.5747 H   0  0  0  0  0  0  0  0  0  0  0  0
   -0.3030   -4.7946    1.1577 H   0  0  0  0  0  0  0  0  0  0  0  0
    2.2274   -6.3853    3.3383 H   0  0  0  0  0  0  0  0  0  0  0  0
    3.4629   -5.1311    3.2088 H   0  0  0  0  0  0  0  0  0  0  0  0
    3.1085   -6.1721    1.8246 H   0  0  0  0  0  0  0  0  0  0  0  0
    0.5582   -4.7309    4.1101 H   0  0  0  0  0  0  0  0  0  0  0  0
    0.2107   -3.2831    3.1572 H   0  0  0  0  0  0  0  0  0  0  0  0
    1.7575   -3.4349    3.9815 H   0  0  0  0  0  0  0  0  0  0  0  0
   -9.9661    2.2421   -4.0922 H   0  0  0  0  0  0  0  0  0  0  0  0
   -8.4443    1.3950   -4.3883 H   0  0  0  0  0  0  0  0  0  0  0  0
   -8.4280    2.9832   -3.6287 H   0  0  0  0  0  0  0  0  0  0  0  0
  -10.8385    0.2303   -2.7793 H   0  0  0  0  0  0  0  0  0  0  0  0
   -9.8881   -0.4068   -1.4300 H   0  0  0  0  0  0  0  0  0  0  0  0
   -9.3207   -0.6200   -3.0835 H   0  0  0  0  0  0  0  0  0  0  0  0
  -10.8555    2.4946   -1.8025 H   0  0  0  0  0  0  0  0  0  0  0  0
   -9.3656    3.2956   -1.3007 H   0  0  0  0  0  0  0  0  0  0  0  0
   -9.9690    1.9014   -0.3968 H   0  0  0  0  0  0  0  0  0  0  0  0
   -7.7523    2.3169    0.0141 H   0  0  0  0  0  0  0  0  0  0  0  0
   -7.1247   -0.1869   -3.4168 H   0  0  0  0  0  0  0  0  0  0  0  0
   -3.3260   -2.7652   -3.7973 H   0  0  0  0  0  0  0  0  0  0  0  0
   -0.3667   -2.9595   -0.7495 H   0  0  0  0  0  0  0  0  0  0  0  0
   -4.3192    2.9814    3.1843 H   0  0  0  0  0  0  0  0  0  0  0  0
   -0.3556    1.5888    2.3595 H   0  0  0  0  0  0  0  0  0  0  0  0
    0.4626    2.8982    1.2779 H   0  0  0  0  0  0  0  0  0  0  0  0
    3.5258    4.4490   -1.2315 H   0  0  0  0  0  0  0  0  0  0  0  0
    7.2376    2.0083   -2.4349 H   0  0  0  0  0  0  0  0  0  0  0  0
    7.7517   -2.0124   -1.0176 H   0  0  0  0  0  0  0  0  0  0  0  0
    4.2143   -4.2664    1.1849 H   0  0  0  0  0  0  0  0  0  0  0  0
    0.2638   -2.6208    1.0555 H   0  0  0  0  0  0  0  0  0  0  0  0
  1  2  4  0  0  0  0
  2  3  4  0  0  0  0
  3  4  4  0  0  0  0
  4  5  4  0  0  0  0
  1  6  4  0  0  0  0
  5  6  4  0  0  0  0
  3  7  1  0  0  0  0
  7  8  4  0  0  0  0
  8  9  4  0  0  0  0
  4 10  1  0  0  0  0
  9 10  1  0  0  0  0
  7 11  4  0  0  0  0
 11 12  4  0  0  0  0
 12 13  1  0  0  0  0
  8 14  4  0  0  0  0
 13 14  1  0  0  0  0
 14 15  4  0  0  0  0
 15 16  4  0  0  0  0
  9 17  4  0  0  0  0
 16 17  4  0  0  0  0
 11 18  4  0  0  0  0
 18 19  4  0  0  0  0
 19 20  4  0  0  0  0
 12 21  4  0  0  0  0
 20 21  4  0  0  0  0
  2 22  1  0  0  0  0
 18 23  1  0  0  0  0
 22 24  1  0  0  0  0
 23 24  1  0  0  0  0
 25 26  4  0  0  0  0
 26 27  4  0  0  0  0
 27 28  4  0  0  0  0
 28 29  4  0  0  0  0
 25 30  4  0  0  0  0
 29 30  4  0  0  0  0
 27 31  4  0  0  0  0
 31 32  4  0  0  0  0
 32 33  4  0  0  0  0
 31 34  1  0  0  0  0
 34 35  4  0  0  0  0
 35 36  1  0  0  0  0
 32 37  4  0  0  0  0
 36 37  1  0  0  0  0
 37 38  4  0  0  0  0
 38 39  4  0  0  0  0
 33 40  4  0  0  0  0
 39 40  4  0  0  0  0
 34 41  4  0  0  0  0
 41 42  4  0  0  0  0
 42 43  4  0  0  0  0
 35 44  4  0  0  0  0
 43 44  4  0  0  0  0
 24 45  1  0  0  0  0
 41 45  1  0  0  0  0
 24 46  1  0  0  0  0
 26 46  1  0  0  0  0
 28 47  1  0  0  0  0
 33 47  1  0  0  0  0
 36 48  2  0  0  0  0
 47 49  2  0  0  0  0
 10 50  2  0  0  0  0
 13 51  2  0  0  0  0
  6 52  1  0  0  0  0
 52 53  1  0  0  0  0
 52 54  1  0  0  0  0
 52 55  1  0  0  0  0
 20 56  1  0  0  0  0
 56 57  1  0  0  0  0
 56 58  1  0  0  0  0
 56 59  1  0  0  0  0
 16 60  1  0  0  0  0
 60 61  1  0  0  0  0
 60 62  1  0  0  0  0
 60 63  1  0  0  0  0
 30 64  1  0  0  0  0
 64 65  1  0  0  0  0
 64 66  1  0  0  0  0
 64 67  1  0  0  0  0
 43 68  1  0  0  0  0
 68 69  1  0  0  0  0
 68 70  1  0  0  0  0
 68 71  1  0  0  0  0
 39 72  1  0  0  0  0
 72 73  1  0  0  0  0
 72 74  1  0  0  0  0
 72 75  1  0  0  0  0
 58 76  1  0  0  0  0
 58 77  1  0  0  0  0
 58 78  1  0  0  0  0
 59 79  1  0  0  0  0
 59 80  1  0  0  0  0
 59 81  1  0  0  0  0
 57 82  1  0  0  0  0
 57 83  1  0  0  0  0
 57 84  1  0  0  0  0
 71 85  1  0  0  0  0
 71 86  1  0  0  0  0
 71 87  1  0  0  0  0
 69 88  1  0  0  0  0
 69 89  1  0  0  0  0
 69 90  1  0  0  0  0
 70 91  1  0  0  0  0
 70 92  1  0  0  0  0
 70 93  1  0  0  0  0
 73 94  1  0  0  0  0
 73 95  1  0  0  0  0
 73 96  1  0  0  0  0
 74 97  1  0  0  0  0
 74 98  1  0  0  0  0
 74 99  1  0  0  0  0
 75100  1  0  0  0  0
 75101  1  0  0  0  0
 75102  1  0  0  0  0
 54103  1  0  0  0  0
 54104  1  0  0  0  0
 54105  1  0  0  0  0
 55106  1  0  0  0  0
 55107  1  0  0  0  0
 55108  1  0  0  0  0
 53109  1  0  0  0  0
 53110  1  0  0  0  0
 53111  1  0  0  0  0
 65112  1  0  0  0  0
 65113  1  0  0  0  0
 65114  1  0  0  0  0
 67115  1  0  0  0  0
 67116  1  0  0  0  0
 67117  1  0  0  0  0
 66118  1  0  0  0  0
 66119  1  0  0  0  0
 66120  1  0  0  0  0
 61121  1  0  0  0  0
 61122  1  0  0  0  0
 61123  1  0  0  0  0
 63124  1  0  0  0  0
 63125  1  0  0  0  0
 63126  1  0  0  0  0
 62127  1  0  0  0  0
 62128  1  0  0  0  0
 62129  1  0  0  0  0
 15130  1  0  0  0  0
 17131  1  0  0  0  0
  5132  1  0  0  0  0
  1133  1  0  0  0  0
 21134  1  0  0  0  0
 19135  1  0  0  0  0
 42136  1  0  0  0  0
 44137  1  0  0  0  0
 38138  1  0  0  0  0
 40139  1  0  0  0  0
 29140  1  0  0  0  0
 25141  1  0  0  0  0
M  CHG  1  24  -1
M  CHG  1  31  -1
M  END
