 energy: -418.847446770374 gnorm: 0.000431620539 xtb: 6.7.1 (edcfbbe)
          12102415173D

282304  0     0  0            999 V2000
   -1.6630   -2.0407   -6.2963 C   0  0  0  0  0  0  0  0  0  0  0  0
   -2.1011   -0.8891   -5.6452 C   0  0  0  0  0  0  0  0  0  0  0  0
   -3.1756   -0.1340   -6.2333 C   0  0  0  0  0  0  0  0  0  0  0  0
   -3.6323   -0.6007   -7.4996 C   0  0  0  0  0  0  0  0  0  0  0  0
   -3.0844   -1.7115   -8.1364 C   0  0  0  0  0  0  0  0  0  0  0  0
   -2.1108   -2.4764   -7.5346 C   0  0  0  0  0  0  0  0  0  0  0  0
   -3.9212    0.9380   -5.6257 C   0  0  0  0  0  0  0  0  0  0  0  0
   -5.1964    1.2758   -6.1418 C   0  0  0  0  0  0  0  0  0  0  0  0
   -5.6036    0.8819   -7.4367 C   0  0  0  0  0  0  0  0  0  0  0  0
   -4.7445    0.0125   -8.2247 C   0  0  0  0  0  0  0  0  0  0  0  0
   -3.5476    1.5950   -4.4148 C   0  0  0  0  0  0  0  0  0  0  0  0
   -4.5216    2.1265   -3.5384 C   0  0  0  0  0  0  0  0  0  0  0  0
   -5.8739    2.3916   -4.0001 C   0  0  0  0  0  0  0  0  0  0  0  0
   -6.1308    2.0408   -5.3975 C   0  0  0  0  0  0  0  0  0  0  0  0
   -7.3524    2.4065   -5.9475 C   0  0  0  0  0  0  0  0  0  0  0  0
   -7.7215    2.0626   -7.2402 C   0  0  0  0  0  0  0  0  0  0  0  0
   -6.8212    1.2894   -7.9621 C   0  0  0  0  0  0  0  0  0  0  0  0
   -2.1978    1.6798   -4.0019 C   0  0  0  0  0  0  0  0  0  0  0  0
   -1.9465    1.7859   -2.6388 C   0  0  0  0  0  0  0  0  0  0  0  0
   -2.9452    2.0917   -1.7118 C   0  0  0  0  0  0  0  0  0  0  0  0
   -4.2019    2.3874   -2.2049 C   0  0  0  0  0  0  0  0  0  0  0  0
   -1.4518   -0.6187   -4.4741 O   0  0  0  0  0  0  0  0  0  0  0  0
   -1.2265    1.6215   -4.9470 O   0  0  0  0  0  0  0  0  0  0  0  0
   -0.3705    0.4595   -4.7118 B   0  0  0  0  0  0  0  0  0  0  0  0
    1.1275   -2.0625   -4.5959 C   0  0  0  0  0  0  0  0  0  0  0  0
    1.4564   -0.8684   -5.2332 C   0  0  0  0  0  0  0  0  0  0  0  0
    2.8242   -0.5126   -5.3047 C   0  0  0  0  0  0  0  0  0  0  0  0
    3.7642   -1.5666   -5.1999 C   0  0  0  0  0  0  0  0  0  0  0  0
    3.3692   -2.8207   -4.7392 C   0  0  0  0  0  0  0  0  0  0  0  0
    2.0717   -3.0461   -4.3157 C   0  0  0  0  0  0  0  0  0  0  0  0
    3.2506    0.8451   -5.4143 C   0  0  0  0  0  0  0  0  0  0  0  0
    4.5772    1.0449   -5.8721 C   0  0  0  0  0  0  0  0  0  0  0  0
    5.5046   -0.0218   -5.9943 C   0  0  0  0  0  0  0  0  0  0  0  0
    2.4882    1.9810   -4.9585 C   0  0  0  0  0  0  0  0  0  0  0  0
    2.9806    3.2720   -5.3023 C   0  0  0  0  0  0  0  0  0  0  0  0
    4.1797    3.4808   -6.1113 C   0  0  0  0  0  0  0  0  0  0  0  0
    5.0498    2.3227   -6.2499 C   0  0  0  0  0  0  0  0  0  0  0  0
    6.3333    2.5013   -6.7422 C   0  0  0  0  0  0  0  0  0  0  0  0
    7.2378    1.4530   -6.8609 C   0  0  0  0  0  0  0  0  0  0  0  0
    6.7928    0.2003   -6.4672 C   0  0  0  0  0  0  0  0  0  0  0  0
    1.3446    1.9667   -4.0897 C   0  0  0  0  0  0  0  0  0  0  0  0
    0.8407    3.1801   -3.6222 C   0  0  0  0  0  0  0  0  0  0  0  0
    1.3092    4.4308   -3.9973 C   0  0  0  0  0  0  0  0  0  0  0  0
    2.3790    4.4482   -4.8643 C   0  0  0  0  0  0  0  0  0  0  0  0
    0.6744    0.8583   -3.6498 O   0  0  0  0  0  0  0  0  0  0  0  0
    0.5247   -0.0377   -5.7610 O   0  0  0  0  0  0  0  0  0  0  0  0
    5.1602   -1.3711   -5.5547 C   0  0  0  0  0  0  0  0  0  0  0  0
    4.4855    4.5847   -6.5839 O   0  0  0  0  0  0  0  0  0  0  0  0
    5.9987   -2.2841   -5.5152 O   0  0  0  0  0  0  0  0  0  0  0  0
   -4.9972   -0.2546   -9.4093 O   0  0  0  0  0  0  0  0  0  0  0  0
   -6.7473    2.8981   -3.2827 O   0  0  0  0  0  0  0  0  0  0  0  0
   -1.5529   -3.7061   -8.2345 C   0  0  0  0  0  0  0  0  0  0  0  0
   -0.5080   -4.4454   -7.3952 C   0  0  0  0  0  0  0  0  0  0  0  0
   -0.8901   -3.2589   -9.5442 C   0  0  0  0  0  0  0  0  0  0  0  0
   -2.7023   -4.6780   -8.5395 C   0  0  0  0  0  0  0  0  0  0  0  0
   -2.6177    2.0619   -0.2264 C   0  0  0  0  0  0  0  0  0  0  0  0
   -1.4826    3.0413    0.0958 C   0  0  0  0  0  0  0  0  0  0  0  0
   -3.8241    2.4279    0.6432 C   0  0  0  0  0  0  0  0  0  0  0  0
   -2.1785    0.6350    0.1320 C   0  0  0  0  0  0  0  0  0  0  0  0
   -9.0472    2.4667   -7.8684 C   0  0  0  0  0  0  0  0  0  0  0  0
   -8.7718    3.2777   -9.1424 C   0  0  0  0  0  0  0  0  0  0  0  0
   -9.9042    3.3215   -6.9306 C   0  0  0  0  0  0  0  0  0  0  0  0
   -9.8393    1.2006   -8.2247 C   0  0  0  0  0  0  0  0  0  0  0  0
    1.7278   -4.3365   -3.5852 C   0  0  0  0  0  0  0  0  0  0  0  0
    0.2576   -4.4082   -3.1659 C   0  0  0  0  0  0  0  0  0  0  0  0
    2.5902   -4.4182   -2.3172 C   0  0  0  0  0  0  0  0  0  0  0  0
    2.0345   -5.5374   -4.4919 C   0  0  0  0  0  0  0  0  0  0  0  0
    0.6804    5.7349   -3.5323 C   0  0  0  0  0  0  0  0  0  0  0  0
    1.7535    6.6061   -2.8631 C   0  0  0  0  0  0  0  0  0  0  0  0
    0.1151    6.4599   -4.7613 C   0  0  0  0  0  0  0  0  0  0  0  0
   -0.4557    5.5233   -2.5305 C   0  0  0  0  0  0  0  0  0  0  0  0
    8.6428    1.7218   -7.3792 C   0  0  0  0  0  0  0  0  0  0  0  0
    9.3391    2.7151   -6.4382 C   0  0  0  0  0  0  0  0  0  0  0  0
    9.4937    0.4510   -7.4522 C   0  0  0  0  0  0  0  0  0  0  0  0
    8.5535    2.3239   -8.7885 C   0  0  0  0  0  0  0  0  0  0  0  0
   -3.5515    2.3582    1.6951 H   0  0  0  0  0  0  0  0  0  0  0  0
   -4.6534    1.7487    0.4610 H   0  0  0  0  0  0  0  0  0  0  0  0
   -4.1531    3.4456    0.4443 H   0  0  0  0  0  0  0  0  0  0  0  0
   -1.9319    0.5689    1.1907 H   0  0  0  0  0  0  0  0  0  0  0  0
   -1.3081    0.3398   -0.4469 H   0  0  0  0  0  0  0  0  0  0  0  0
   -2.9812   -0.0675   -0.0836 H   0  0  0  0  0  0  0  0  0  0  0  0
   -1.2567    3.0154    1.1609 H   0  0  0  0  0  0  0  0  0  0  0  0
   -1.7758    4.0548   -0.1714 H   0  0  0  0  0  0  0  0  0  0  0  0
   -0.5786    2.7841   -0.4488 H   0  0  0  0  0  0  0  0  0  0  0  0
   -0.8757    6.4872   -2.2418 H   0  0  0  0  0  0  0  0  0  0  0  0
   -0.0870    5.0322   -1.6340 H   0  0  0  0  0  0  0  0  0  0  0  0
   -1.2523    4.9222   -2.9615 H   0  0  0  0  0  0  0  0  0  0  0  0
    1.3210    7.5473   -2.5234 H   0  0  0  0  0  0  0  0  0  0  0  0
    2.5638    6.8285   -3.5519 H   0  0  0  0  0  0  0  0  0  0  0  0
    2.1712    6.0873   -2.0026 H   0  0  0  0  0  0  0  0  0  0  0  0
   -0.3444    7.4049   -4.4705 H   0  0  0  0  0  0  0  0  0  0  0  0
   -0.6384    5.8377   -5.2388 H   0  0  0  0  0  0  0  0  0  0  0  0
    0.8987    6.6629   -5.4867 H   0  0  0  0  0  0  0  0  0  0  0  0
   10.3514    2.9269   -6.7839 H   0  0  0  0  0  0  0  0  0  0  0  0
    9.3947    2.2995   -5.4341 H   0  0  0  0  0  0  0  0  0  0  0  0
    8.7890    3.6505   -6.3865 H   0  0  0  0  0  0  0  0  0  0  0  0
   10.4856    0.6920   -7.8364 H   0  0  0  0  0  0  0  0  0  0  0  0
    9.0392   -0.2812   -8.1153 H   0  0  0  0  0  0  0  0  0  0  0  0
    9.6091    0.0059   -6.4670 H   0  0  0  0  0  0  0  0  0  0  0  0
    9.5495    2.5370   -9.1783 H   0  0  0  0  0  0  0  0  0  0  0  0
    7.9818    3.2475   -8.7799 H   0  0  0  0  0  0  0  0  0  0  0  0
    8.0589    1.6258   -9.4611 H   0  0  0  0  0  0  0  0  0  0  0  0
   -0.4795   -4.1158  -10.0796 H   0  0  0  0  0  0  0  0  0  0  0  0
   -0.0830   -2.5633   -9.3268 H   0  0  0  0  0  0  0  0  0  0  0  0
   -1.6070   -2.7572  -10.1886 H   0  0  0  0  0  0  0  0  0  0  0  0
   -2.3269   -5.5663   -9.0486 H   0  0  0  0  0  0  0  0  0  0  0  0
   -3.4508   -4.2084   -9.1716 H   0  0  0  0  0  0  0  0  0  0  0  0
   -3.1850   -4.9866   -7.6141 H   0  0  0  0  0  0  0  0  0  0  0  0
   -0.1381   -5.3107   -7.9470 H   0  0  0  0  0  0  0  0  0  0  0  0
   -0.9433   -4.7993   -6.4630 H   0  0  0  0  0  0  0  0  0  0  0  0
    0.3367   -3.7992   -7.1694 H   0  0  0  0  0  0  0  0  0  0  0  0
    0.0791   -5.3288   -2.6094 H   0  0  0  0  0  0  0  0  0  0  0  0
   -0.3992   -4.4046   -4.0322 H   0  0  0  0  0  0  0  0  0  0  0  0
   -0.0039   -3.5684   -2.5278 H   0  0  0  0  0  0  0  0  0  0  0  0
    1.8002   -6.4699   -3.9779 H   0  0  0  0  0  0  0  0  0  0  0  0
    3.0842   -5.5546   -4.7724 H   0  0  0  0  0  0  0  0  0  0  0  0
    1.4395   -5.4831   -5.4007 H   0  0  0  0  0  0  0  0  0  0  0  0
    2.3744   -5.3332   -1.7654 H   0  0  0  0  0  0  0  0  0  0  0  0
    2.3813   -3.5673   -1.6731 H   0  0  0  0  0  0  0  0  0  0  0  0
    3.6483   -4.4042   -2.5644 H   0  0  0  0  0  0  0  0  0  0  0  0
   -9.7071    3.5767   -9.6169 H   0  0  0  0  0  0  0  0  0  0  0  0
   -8.1937    2.6960   -9.8548 H   0  0  0  0  0  0  0  0  0  0  0  0
   -8.2045    4.1734   -8.8973 H   0  0  0  0  0  0  0  0  0  0  0  0
  -10.7941    1.4611   -8.6828 H   0  0  0  0  0  0  0  0  0  0  0  0
  -10.0325    0.6181   -7.3261 H   0  0  0  0  0  0  0  0  0  0  0  0
   -9.2820    0.5774   -8.9185 H   0  0  0  0  0  0  0  0  0  0  0  0
  -10.8364    3.5935   -7.4272 H   0  0  0  0  0  0  0  0  0  0  0  0
   -9.3835    4.2360   -6.6574 H   0  0  0  0  0  0  0  0  0  0  0  0
  -10.1489    2.7747   -6.0233 H   0  0  0  0  0  0  0  0  0  0  0  0
   -8.0054    2.9712   -5.2990 H   0  0  0  0  0  0  0  0  0  0  0  0
   -7.0405    0.9586   -8.9683 H   0  0  0  0  0  0  0  0  0  0  0  0
   -3.4878   -1.9520   -9.1097 H   0  0  0  0  0  0  0  0  0  0  0  0
   -0.8905   -2.5963   -5.8017 H   0  0  0  0  0  0  0  0  0  0  0  0
   -4.9999    2.7626   -1.5843 H   0  0  0  0  0  0  0  0  0  0  0  0
   -0.9480    1.5663   -2.3011 H   0  0  0  0  0  0  0  0  0  0  0  0
    0.0020    3.1198   -2.9555 H   0  0  0  0  0  0  0  0  0  0  0  0
    2.8147    5.3696   -5.2233 H   0  0  0  0  0  0  0  0  0  0  0  0
    6.6002    3.5119   -7.0198 H   0  0  0  0  0  0  0  0  0  0  0  0
    7.4324   -0.6690   -6.5006 H   0  0  0  0  0  0  0  0  0  0  0  0
    4.1405   -3.5736   -4.6664 H   0  0  0  0  0  0  0  0  0  0  0  0
    0.1073   -2.1737   -4.2789 H   0  0  0  0  0  0  0  0  0  0  0  0
   -0.4505   -2.0685   10.1589 C   0  0  0  0  0  0  0  0  0  0  0  0
   -1.1260   -1.3610   11.1486 C   0  0  0  0  0  0  0  0  0  0  0  0
   -1.9372   -0.2435   10.7529 C   0  0  0  0  0  0  0  0  0  0  0  0
   -1.9100    0.0776    9.3686 C   0  0  0  0  0  0  0  0  0  0  0  0
   -1.1310   -0.6132    8.4428 C   0  0  0  0  0  0  0  0  0  0  0  0
   -0.4015   -1.7188    8.8143 C   0  0  0  0  0  0  0  0  0  0  0  0
   -2.8598    0.4946   11.5782 C   0  0  0  0  0  0  0  0  0  0  0  0
   -3.9031    1.2324   10.9618 C   0  0  0  0  0  0  0  0  0  0  0  0
   -3.8471    1.5958    9.5999 C   0  0  0  0  0  0  0  0  0  0  0  0
   -2.7267    1.1435    8.7830 C   0  0  0  0  0  0  0  0  0  0  0  0
   -2.8931    0.4385   13.0014 C   0  0  0  0  0  0  0  0  0  0  0  0
   -4.0942    0.6696   13.7143 C   0  0  0  0  0  0  0  0  0  0  0  0
   -5.2468    1.2835   13.0743 C   0  0  0  0  0  0  0  0  0  0  0  0
   -5.0462    1.6676   11.6805 C   0  0  0  0  0  0  0  0  0  0  0  0
   -6.0291    2.4208   11.0520 C   0  0  0  0  0  0  0  0  0  0  0  0
   -5.9470    2.8066    9.7199 C   0  0  0  0  0  0  0  0  0  0  0  0
   -4.8338    2.3759    9.0124 C   0  0  0  0  0  0  0  0  0  0  0  0
   -1.7454    0.1033   13.7590 C   0  0  0  0  0  0  0  0  0  0  0  0
   -1.9364   -0.4233   15.0342 C   0  0  0  0  0  0  0  0  0  0  0  0
   -3.1592   -0.3478   15.6966 C   0  0  0  0  0  0  0  0  0  0  0  0
   -4.1973    0.3017   15.0544 C   0  0  0  0  0  0  0  0  0  0  0  0
   -0.9424   -1.8225   12.4265 O   0  0  0  0  0  0  0  0  0  0  0  0
   -0.5196    0.2941   13.2182 O   0  0  0  0  0  0  0  0  0  0  0  0
    0.1864   -0.9837   13.0782 B   0  0  0  0  0  0  0  0  0  0  0  0
    1.4734   -3.5203   12.3597 C   0  0  0  0  0  0  0  0  0  0  0  0
    2.0321   -2.2575   12.5138 C   0  0  0  0  0  0  0  0  0  0  0  0
    3.3532   -2.1810   13.0145 C   0  0  0  0  0  0  0  0  0  0  0  0
    4.1656   -3.3286   12.8691 C   0  0  0  0  0  0  0  0  0  0  0  0
    3.5999   -4.5614   12.5349 C   0  0  0  0  0  0  0  0  0  0  0  0
    2.2347   -4.6913   12.3889 C   0  0  0  0  0  0  0  0  0  0  0  0
    3.8387   -1.0159   13.6824 C   0  0  0  0  0  0  0  0  0  0  0  0
    5.2457   -0.8687   13.7148 C   0  0  0  0  0  0  0  0  0  0  0  0
    6.1214   -1.9198   13.3376 C   0  0  0  0  0  0  0  0  0  0  0  0
    3.0115   -0.0813   14.3998 C   0  0  0  0  0  0  0  0  0  0  0  0
    3.6370    1.1083   14.8715 C   0  0  0  0  0  0  0  0  0  0  0  0
    5.0409    1.4310   14.6178 C   0  0  0  0  0  0  0  0  0  0  0  0
    5.8590    0.3439   14.1040 C   0  0  0  0  0  0  0  0  0  0  0  0
    7.2322    0.5152   14.0076 C   0  0  0  0  0  0  0  0  0  0  0  0
    8.0811   -0.4971   13.5773 C   0  0  0  0  0  0  0  0  0  0  0  0
    7.4948   -1.7196   13.2822 C   0  0  0  0  0  0  0  0  0  0  0  0
    1.6438   -0.2651   14.8000 C   0  0  0  0  0  0  0  0  0  0  0  0
    1.0568    0.6873   15.6289 C   0  0  0  0  0  0  0  0  0  0  0  0
    1.6649    1.8632   16.0458 C   0  0  0  0  0  0  0  0  0  0  0  0
    2.9632    2.0595   15.6344 C   0  0  0  0  0  0  0  0  0  0  0  0
    0.8237   -1.3070   14.4522 O   0  0  0  0  0  0  0  0  0  0  0  0
    1.3679   -1.1108   12.2279 O   0  0  0  0  0  0  0  0  0  0  0  0
    5.6041   -3.2581   13.0629 C   0  0  0  0  0  0  0  0  0  0  0  0
    5.5298    2.5363   14.8963 O   0  0  0  0  0  0  0  0  0  0  0  0
    6.3484   -4.2468   12.9782 O   0  0  0  0  0  0  0  0  0  0  0  0
   -2.5374    1.5785    7.6441 O   0  0  0  0  0  0  0  0  0  0  0  0
   -6.3144    1.4936   13.6713 O   0  0  0  0  0  0  0  0  0  0  0  0
    0.4262   -2.5474    7.8454 C   0  0  0  0  0  0  0  0  0  0  0  0
   -0.2094   -3.9394    7.7217 C   0  0  0  0  0  0  0  0  0  0  0  0
    1.8627   -2.6738    8.3706 C   0  0  0  0  0  0  0  0  0  0  0  0
    0.4824   -1.9167    6.4509 C   0  0  0  0  0  0  0  0  0  0  0  0
   -3.3769   -0.9268   17.0878 C   0  0  0  0  0  0  0  0  0  0  0  0
   -3.7641    0.2023   18.0538 C   0  0  0  0  0  0  0  0  0  0  0  0
   -4.5162   -1.9540   17.0149 C   0  0  0  0  0  0  0  0  0  0  0  0
   -2.1341   -1.6298   17.6391 C   0  0  0  0  0  0  0  0  0  0  0  0
   -7.0521    3.6525    9.1052 C   0  0  0  0  0  0  0  0  0  0  0  0
   -7.1628    4.9710    9.8839 C   0  0  0  0  0  0  0  0  0  0  0  0
   -8.3800    2.8873    9.1955 C   0  0  0  0  0  0  0  0  0  0  0  0
   -6.7870    3.9835    7.6343 C   0  0  0  0  0  0  0  0  0  0  0  0
    1.5314   -6.0351   12.2595 C   0  0  0  0  0  0  0  0  0  0  0  0
    0.7033   -6.0768   10.9686 C   0  0  0  0  0  0  0  0  0  0  0  0
    0.6029   -6.2086   13.4696 C   0  0  0  0  0  0  0  0  0  0  0  0
    2.5173   -7.2072   12.2306 C   0  0  0  0  0  0  0  0  0  0  0  0
    0.9428    2.9248   16.8613 C   0  0  0  0  0  0  0  0  0  0  0  0
    1.7632    3.2578   18.1161 C   0  0  0  0  0  0  0  0  0  0  0  0
    0.8018    4.1781   15.9871 C   0  0  0  0  0  0  0  0  0  0  0  0
   -0.4551    2.4855   17.3051 C   0  0  0  0  0  0  0  0  0  0  0  0
    9.5750   -0.2330   13.4602 C   0  0  0  0  0  0  0  0  0  0  0  0
   10.1304    0.1550   14.8378 C   0  0  0  0  0  0  0  0  0  0  0  0
   10.3485   -1.4541   12.9549 C   0  0  0  0  0  0  0  0  0  0  0  0
    9.7992    0.9198   12.4714 C   0  0  0  0  0  0  0  0  0  0  0  0
   -4.7046   -2.3906   17.9966 H   0  0  0  0  0  0  0  0  0  0  0  0
   -4.2497   -2.7511   16.3244 H   0  0  0  0  0  0  0  0  0  0  0  0
   -5.4330   -1.4914   16.6596 H   0  0  0  0  0  0  0  0  0  0  0  0
   -2.3561   -2.0568   18.6183 H   0  0  0  0  0  0  0  0  0  0  0  0
   -1.3083   -0.9322   17.7532 H   0  0  0  0  0  0  0  0  0  0  0  0
   -1.8195   -2.4334   16.9786 H   0  0  0  0  0  0  0  0  0  0  0  0
   -3.9312   -0.1934   19.0563 H   0  0  0  0  0  0  0  0  0  0  0  0
   -4.6719    0.7002   17.7245 H   0  0  0  0  0  0  0  0  0  0  0  0
   -2.9685    0.9425   18.1000 H   0  0  0  0  0  0  0  0  0  0  0  0
   -0.9197    3.2772   17.8945 H   0  0  0  0  0  0  0  0  0  0  0  0
   -0.3995    1.5904   17.9219 H   0  0  0  0  0  0  0  0  0  0  0  0
   -1.0912    2.2848   16.4468 H   0  0  0  0  0  0  0  0  0  0  0  0
    1.2610    4.0242   18.7074 H   0  0  0  0  0  0  0  0  0  0  0  0
    2.7511    3.6223   17.8498 H   0  0  0  0  0  0  0  0  0  0  0  0
    1.8839    2.3680   18.7316 H   0  0  0  0  0  0  0  0  0  0  0  0
    0.2854    4.9710   16.5292 H   0  0  0  0  0  0  0  0  0  0  0  0
    0.2323    3.9378   15.0925 H   0  0  0  0  0  0  0  0  0  0  0  0
    1.7779    4.5441   15.6795 H   0  0  0  0  0  0  0  0  0  0  0  0
   11.2000    0.3586   14.7764 H   0  0  0  0  0  0  0  0  0  0  0  0
    9.9710   -0.6562   15.5460 H   0  0  0  0  0  0  0  0  0  0  0  0
    9.6320    1.0414   15.2202 H   0  0  0  0  0  0  0  0  0  0  0  0
   11.4082   -1.2109   12.8705 H   0  0  0  0  0  0  0  0  0  0  0  0
    9.9896   -1.7585   11.9749 H   0  0  0  0  0  0  0  0  0  0  0  0
   10.2446   -2.2913   13.6410 H   0  0  0  0  0  0  0  0  0  0  0  0
   10.8630    1.1359   12.3683 H   0  0  0  0  0  0  0  0  0  0  0  0
    9.2944    1.8218   12.8055 H   0  0  0  0  0  0  0  0  0  0  0  0
    9.4026    0.6535   11.4940 H   0  0  0  0  0  0  0  0  0  0  0  0
    2.4720   -3.2437    7.6693 H   0  0  0  0  0  0  0  0  0  0  0  0
    1.8984   -3.1699    9.3361 H   0  0  0  0  0  0  0  0  0  0  0  0
    2.3019   -1.6864    8.4901 H   0  0  0  0  0  0  0  0  0  0  0  0
    1.1141   -2.5195    5.7992 H   0  0  0  0  0  0  0  0  0  0  0  0
    0.9007   -0.9147    6.4995 H   0  0  0  0  0  0  0  0  0  0  0  0
   -0.5076   -1.8619    6.0048 H   0  0  0  0  0  0  0  0  0  0  0  0
    0.3686   -4.5620    7.0394 H   0  0  0  0  0  0  0  0  0  0  0  0
   -1.2242   -3.8539    7.3370 H   0  0  0  0  0  0  0  0  0  0  0  0
   -0.2515   -4.4326    8.6882 H   0  0  0  0  0  0  0  0  0  0  0  0
    0.2504   -7.0601   10.8374 H   0  0  0  0  0  0  0  0  0  0  0  0
    1.3384   -5.8718   10.1089 H   0  0  0  0  0  0  0  0  0  0  0  0
   -0.0941   -5.3399   10.9959 H   0  0  0  0  0  0  0  0  0  0  0  0
    1.9702   -8.1477   12.1567 H   0  0  0  0  0  0  0  0  0  0  0  0
    3.1171   -7.2318   13.1372 H   0  0  0  0  0  0  0  0  0  0  0  0
    3.1815   -7.1309   11.3730 H   0  0  0  0  0  0  0  0  0  0  0  0
    0.0514   -7.1469   13.3992 H   0  0  0  0  0  0  0  0  0  0  0  0
   -0.1083   -5.3896   13.5272 H   0  0  0  0  0  0  0  0  0  0  0  0
    1.1861   -6.2137   14.3886 H   0  0  0  0  0  0  0  0  0  0  0  0
   -7.9482    5.5988    9.4626 H   0  0  0  0  0  0  0  0  0  0  0  0
   -6.2206    5.5128    9.8325 H   0  0  0  0  0  0  0  0  0  0  0  0
   -7.3918    4.7872   10.9302 H   0  0  0  0  0  0  0  0  0  0  0  0
   -7.6002    4.5938    7.2414 H   0  0  0  0  0  0  0  0  0  0  0  0
   -6.7245    3.0773    7.0372 H   0  0  0  0  0  0  0  0  0  0  0  0
   -5.8598    4.5399    7.5228 H   0  0  0  0  0  0  0  0  0  0  0  0
   -9.1901    3.4767    8.7656 H   0  0  0  0  0  0  0  0  0  0  0  0
   -8.6292    2.6592   10.2283 H   0  0  0  0  0  0  0  0  0  0  0  0
   -8.3063    1.9494    8.6488 H   0  0  0  0  0  0  0  0  0  0  0  0
   -6.8776    2.6956   11.6639 H   0  0  0  0  0  0  0  0  0  0  0  0
   -4.6850    2.6194    7.9717 H   0  0  0  0  0  0  0  0  0  0  0  0
   -1.1597   -0.2453    7.4296 H   0  0  0  0  0  0  0  0  0  0  0  0
    0.1150   -2.9240   10.4791 H   0  0  0  0  0  0  0  0  0  0  0  0
   -5.1448    0.4950   15.5366 H   0  0  0  0  0  0  0  0  0  0  0  0
   -1.1018   -0.9356   15.4765 H   0  0  0  0  0  0  0  0  0  0  0  0
    0.0411    0.5023   15.9187 H   0  0  0  0  0  0  0  0  0  0  0  0
    3.5236    2.9463   15.8935 H   0  0  0  0  0  0  0  0  0  0  0  0
    7.6114    1.4875   14.2913 H   0  0  0  0  0  0  0  0  0  0  0  0
    8.0818   -2.5782   12.9925 H   0  0  0  0  0  0  0  0  0  0  0  0
    4.2817   -5.3932   12.4541 H   0  0  0  0  0  0  0  0  0  0  0  0
    0.4035   -3.5750   12.2551 H   0  0  0  0  0  0  0  0  0  0  0  0
  1  2  2  0  0  0  0
  1  6  1  0  0  0  0
  1133  1  0  0  0  0
  2  3  1  0  0  0  0
  2 22  1  0  0  0  0
  3  4  2  0  0  0  0
  3  7  1  0  0  0  0
  4  5  1  0  0  0  0
  4 10  1  0  0  0  0
  5  6  2  0  0  0  0
  5132  1  0  0  0  0
  6 52  1  0  0  0  0
  7  8  2  0  0  0  0
  7 11  1  0  0  0  0
  8 14  1  0  0  0  0
  9  8  1  0  0  0  0
  9 10  1  0  0  0  0
  9 17  1  0  0  0  0
 10 50  2  0  0  0  0
 11 12  2  0  0  0  0
 11 18  1  0  0  0  0
 12 13  1  0  0  0  0
 12 21  1  0  0  0  0
 13 14  1  0  0  0  0
 13 51  2  0  0  0  0
 14 15  2  0  0  0  0
 15 16  1  0  0  0  0
 15130  1  0  0  0  0
 16 17  2  0  0  0  0
 16 60  1  0  0  0  0
 17131  1  0  0  0  0
 18 19  2  0  0  0  0
 18 23  1  0  0  0  0
 19 20  1  0  0  0  0
 19135  1  0  0  0  0
 20 21  2  0  0  0  0
 20 56  1  0  0  0  0
 21134  1  0  0  0  0
 23 24  1  0  0  0  0
 24 22  1  0  0  0  0
 24 45  1  0  0  0  0
 24 46  1  0  0  0  0
 25 26  2  0  0  0  0
 25 30  1  0  0  0  0
 25141  1  0  0  0  0
 26 27  1  0  0  0  0
 26 46  1  0  0  0  0
 27 28  2  0  0  0  0
 27 31  1  0  0  0  0
 28 29  1  0  0  0  0
 28 47  1  0  0  0  0
 29 30  2  0  0  0  0
 29140  1  0  0  0  0
 30 64  1  0  0  0  0
 31 32  2  0  0  0  0
 31 34  1  0  0  0  0
 32 37  1  0  0  0  0
 33 32  1  0  0  0  0
 33 40  1  0  0  0  0
 33 47  1  0  0  0  0
 34 35  2  0  0  0  0
 34 41  1  0  0  0  0
 35 36  1  0  0  0  0
 35 44  1  0  0  0  0
 36 37  1  0  0  0  0
 36 48  2  0  0  0  0
 37 38  2  0  0  0  0
 38 39  1  0  0  0  0
 38138  1  0  0  0  0
 39 40  2  0  0  0  0
 39 72  1  0  0  0  0
 40139  1  0  0  0  0
 41 42  2  0  0  0  0
 41 45  1  0  0  0  0
 42 43  1  0  0  0  0
 42136  1  0  0  0  0
 43 44  2  0  0  0  0
 43 68  1  0  0  0  0
 44137  1  0  0  0  0
 47 49  2  0  0  0  0
 52 53  1  0  0  0  0
 52 54  1  0  0  0  0
 52 55  1  0  0  0  0
 53109  1  0  0  0  0
 53110  1  0  0  0  0
 53111  1  0  0  0  0
 54103  1  0  0  0  0
 54104  1  0  0  0  0
 54105  1  0  0  0  0
 55106  1  0  0  0  0
 55107  1  0  0  0  0
 55108  1  0  0  0  0
 56 57  1  0  0  0  0
 56 58  1  0  0  0  0
 56 59  1  0  0  0  0
 57 82  1  0  0  0  0
 57 83  1  0  0  0  0
 57 84  1  0  0  0  0
 58 76  1  0  0  0  0
 58 77  1  0  0  0  0
 58 78  1  0  0  0  0
 59 79  1  0  0  0  0
 59 80  1  0  0  0  0
 59 81  1  0  0  0  0
 60 61  1  0  0  0  0
 60 62  1  0  0  0  0
 60 63  1  0  0  0  0
 61121  1  0  0  0  0
 61122  1  0  0  0  0
 61123  1  0  0  0  0
 62127  1  0  0  0  0
 62128  1  0  0  0  0
 62129  1  0  0  0  0
 63124  1  0  0  0  0
 63125  1  0  0  0  0
 63126  1  0  0  0  0
 64 65  1  0  0  0  0
 64 66  1  0  0  0  0
 64 67  1  0  0  0  0
 65112  1  0  0  0  0
 65113  1  0  0  0  0
 65114  1  0  0  0  0
 66118  1  0  0  0  0
 66119  1  0  0  0  0
 66120  1  0  0  0  0
 67115  1  0  0  0  0
 67116  1  0  0  0  0
 67117  1  0  0  0  0
 68 69  1  0  0  0  0
 68 70  1  0  0  0  0
 68 71  1  0  0  0  0
 69 88  1  0  0  0  0
 69 89  1  0  0  0  0
 69 90  1  0  0  0  0
 70 91  1  0  0  0  0
 70 92  1  0  0  0  0
 70 93  1  0  0  0  0
 71 85  1  0  0  0  0
 71 86  1  0  0  0  0
 71 87  1  0  0  0  0
 72 73  1  0  0  0  0
 72 74  1  0  0  0  0
 72 75  1  0  0  0  0
 73 94  1  0  0  0  0
 73 95  1  0  0  0  0
 73 96  1  0  0  0  0
 74 97  1  0  0  0  0
 74 98  1  0  0  0  0
 74 99  1  0  0  0  0
 75100  1  0  0  0  0
 75101  1  0  0  0  0
 75102  1  0  0  0  0
142143  2  0  0  0  0
142147  1  0  0  0  0
142274  1  0  0  0  0
143144  1  0  0  0  0
143163  1  0  0  0  0
144145  2  0  0  0  0
144148  1  0  0  0  0
145146  1  0  0  0  0
145151  1  0  0  0  0
146147  2  0  0  0  0
146273  1  0  0  0  0
147193  1  0  0  0  0
148149  2  0  0  0  0
148152  1  0  0  0  0
149155  1  0  0  0  0
150149  1  0  0  0  0
150151  1  0  0  0  0
150158  1  0  0  0  0
151191  2  0  0  0  0
152153  2  0  0  0  0
152159  1  0  0  0  0
153154  1  0  0  0  0
153162  1  0  0  0  0
154155  1  0  0  0  0
154192  2  0  0  0  0
155156  2  0  0  0  0
156157  1  0  0  0  0
156271  1  0  0  0  0
157158  2  0  0  0  0
157201  1  0  0  0  0
158272  1  0  0  0  0
159160  2  0  0  0  0
159164  1  0  0  0  0
160161  1  0  0  0  0
160276  1  0  0  0  0
161162  2  0  0  0  0
161197  1  0  0  0  0
162275  1  0  0  0  0
164165  1  0  0  0  0
165163  1  0  0  0  0
165186  1  0  0  0  0
165187  1  0  0  0  0
166167  2  0  0  0  0
166171  1  0  0  0  0
166282  1  0  0  0  0
167168  1  0  0  0  0
167187  1  0  0  0  0
168169  2  0  0  0  0
168172  1  0  0  0  0
169170  1  0  0  0  0
169188  1  0  0  0  0
170171  2  0  0  0  0
170281  1  0  0  0  0
171205  1  0  0  0  0
172173  2  0  0  0  0
172175  1  0  0  0  0
173178  1  0  0  0  0
174173  1  0  0  0  0
174181  1  0  0  0  0
174188  1  0  0  0  0
175176  2  0  0  0  0
175182  1  0  0  0  0
176177  1  0  0  0  0
176185  1  0  0  0  0
177178  1  0  0  0  0
177189  2  0  0  0  0
178179  2  0  0  0  0
179180  1  0  0  0  0
179279  1  0  0  0  0
180181  2  0  0  0  0
180213  1  0  0  0  0
181280  1  0  0  0  0
182183  2  0  0  0  0
182186  1  0  0  0  0
183184  1  0  0  0  0
183277  1  0  0  0  0
184185  2  0  0  0  0
184209  1  0  0  0  0
185278  1  0  0  0  0
188190  2  0  0  0  0
193194  1  0  0  0  0
193195  1  0  0  0  0
193196  1  0  0  0  0
194250  1  0  0  0  0
194251  1  0  0  0  0
194252  1  0  0  0  0
195244  1  0  0  0  0
195245  1  0  0  0  0
195246  1  0  0  0  0
196247  1  0  0  0  0
196248  1  0  0  0  0
196249  1  0  0  0  0
197198  1  0  0  0  0
197199  1  0  0  0  0
197200  1  0  0  0  0
198223  1  0  0  0  0
198224  1  0  0  0  0
198225  1  0  0  0  0
199217  1  0  0  0  0
199218  1  0  0  0  0
199219  1  0  0  0  0
200220  1  0  0  0  0
200221  1  0  0  0  0
200222  1  0  0  0  0
201202  1  0  0  0  0
201203  1  0  0  0  0
201204  1  0  0  0  0
202262  1  0  0  0  0
202263  1  0  0  0  0
202264  1  0  0  0  0
203268  1  0  0  0  0
203269  1  0  0  0  0
203270  1  0  0  0  0
204265  1  0  0  0  0
204266  1  0  0  0  0
204267  1  0  0  0  0
205206  1  0  0  0  0
205207  1  0  0  0  0
205208  1  0  0  0  0
206253  1  0  0  0  0
206254  1  0  0  0  0
206255  1  0  0  0  0
207259  1  0  0  0  0
207260  1  0  0  0  0
207261  1  0  0  0  0
208256  1  0  0  0  0
208257  1  0  0  0  0
208258  1  0  0  0  0
209210  1  0  0  0  0
209211  1  0  0  0  0
209212  1  0  0  0  0
210229  1  0  0  0  0
210230  1  0  0  0  0
210231  1  0  0  0  0
211232  1  0  0  0  0
211233  1  0  0  0  0
211234  1  0  0  0  0
212226  1  0  0  0  0
212227  1  0  0  0  0
212228  1  0  0  0  0
213214  1  0  0  0  0
213215  1  0  0  0  0
213216  1  0  0  0  0
214235  1  0  0  0  0
214236  1  0  0  0  0
214237  1  0  0  0  0
215238  1  0  0  0  0
215239  1  0  0  0  0
215240  1  0  0  0  0
216241  1  0  0  0  0
216242  1  0  0  0  0
216243  1  0  0  0  0
M  CHG  1  24  -1
M  CHG  1  31  -1
M  CHG  1 165  -1
M  CHG  1 172  -1
M  END
