 energy: -200.573108992243 gnorm: 0.000380930301 xtb: 6.7.1 (edcfbbe)
          02242509333D

101112  0     0  0            999 V2000
   -0.1829    4.5073    0.2216 C   0  0  0  0  0  0  0  0  0  0  0  0
    0.2330    3.3091    0.7895 C   0  0  0  0  0  0  0  0  0  0  0  0
    1.6106    2.9814    0.8122 C   0  0  0  0  0  0  0  0  0  0  0  0
    2.5288    4.0432    0.4674 C   0  0  0  0  0  0  0  0  0  0  0  0
    2.0659    5.2225   -0.1627 C   0  0  0  0  0  0  0  0  0  0  0  0
    0.7178    5.4407   -0.3014 C   0  0  0  0  0  0  0  0  0  0  0  0
    2.1826    1.7356    1.2513 C   0  0  0  0  0  0  0  0  0  0  0  0
    3.5186    1.8290    1.7062 C   0  0  0  0  0  0  0  0  0  0  0  0
    4.2888    3.0109    1.4941 C   0  0  0  0  0  0  0  0  0  0  0  0
    3.8158    4.0327    0.7867 N   0  0  0  0  0  0  0  0  0  0  0  0
    1.6228    0.4072    1.2010 C   0  0  0  0  0  0  0  0  0  0  0  0
    2.3902   -0.6387    1.8418 C   0  0  0  0  0  0  0  0  0  0  0  0
    3.5382   -0.4439    2.4784 N   0  0  0  0  0  0  0  0  0  0  0  0
    4.1406    0.7346    2.3712 C   0  0  0  0  0  0  0  0  0  0  0  0
    5.4393    0.8694    2.9029 C   0  0  0  0  0  0  0  0  0  0  0  0
    6.1618    2.0364    2.7038 C   0  0  0  0  0  0  0  0  0  0  0  0
    5.6053    3.0878    1.9860 C   0  0  0  0  0  0  0  0  0  0  0  0
    0.4957   -0.0243    0.4425 C   0  0  0  0  0  0  0  0  0  0  0  0
    0.2791   -1.3918    0.2421 C   0  0  0  0  0  0  0  0  0  0  0  0
    1.0319   -2.3832    0.8789 C   0  0  0  0  0  0  0  0  0  0  0  0
    2.0266   -2.0036    1.7412 C   0  0  0  0  0  0  0  0  0  0  0  0
   -0.6739    2.5256    1.3752 O   0  0  0  0  0  0  0  0  0  0  0  0
   -0.3547    0.7748   -0.1951 O   0  0  0  0  0  0  0  0  0  0  0  0
    0.2391    6.6925   -0.9497 C   0  0  0  0  0  0  0  0  0  0  0  0
    0.7812   -3.8287    0.6389 C   0  0  0  0  0  0  0  0  0  0  0  0
    7.5551    2.1933    3.2154 C   0  0  0  0  0  0  0  0  0  0  0  0
   -1.8531   -1.3838    2.0488 C   0  0  0  0  0  0  0  0  0  0  0  0
   -2.4917   -0.4641    1.2196 C   0  0  0  0  0  0  0  0  0  0  0  0
   -3.3903   -0.9092    0.2108 C   0  0  0  0  0  0  0  0  0  0  0  0
   -3.4832   -2.3410    0.0413 C   0  0  0  0  0  0  0  0  0  0  0  0
   -2.7762   -3.2403    0.8757 C   0  0  0  0  0  0  0  0  0  0  0  0
   -2.0016   -2.7672    1.9012 C   0  0  0  0  0  0  0  0  0  0  0  0
   -4.3071   -0.0938   -0.5454 C   0  0  0  0  0  0  0  0  0  0  0  0
   -5.2720   -0.8042   -1.2984 C   0  0  0  0  0  0  0  0  0  0  0  0
   -5.1467   -2.2064   -1.5199 C   0  0  0  0  0  0  0  0  0  0  0  0
   -4.2523   -2.9357   -0.8650 N   0  0  0  0  0  0  0  0  0  0  0  0
   -4.4770    1.3420   -0.5338 C   0  0  0  0  0  0  0  0  0  0  0  0
   -5.8134    1.8153   -0.8344 C   0  0  0  0  0  0  0  0  0  0  0  0
   -6.7289    1.0893   -1.4602 N   0  0  0  0  0  0  0  0  0  0  0  0
   -6.4267   -0.1530   -1.8225 C   0  0  0  0  0  0  0  0  0  0  0  0
   -7.3123   -0.8505   -2.6633 C   0  0  0  0  0  0  0  0  0  0  0  0
   -7.0824   -2.1827   -2.9866 C   0  0  0  0  0  0  0  0  0  0  0  0
   -6.0215   -2.8640   -2.4106 C   0  0  0  0  0  0  0  0  0  0  0  0
   -3.4965    2.3591   -0.3634 C   0  0  0  0  0  0  0  0  0  0  0  0
   -3.9067    3.6765   -0.1633 C   0  0  0  0  0  0  0  0  0  0  0  0
   -5.2466    4.0715   -0.2042 C   0  0  0  0  0  0  0  0  0  0  0  0
   -6.1956    3.1514   -0.5714 C   0  0  0  0  0  0  0  0  0  0  0  0
   -2.2247    0.8158    1.4567 O   0  0  0  0  0  0  0  0  0  0  0  0
   -2.1887    2.1517   -0.5116 O   0  0  0  0  0  0  0  0  0  0  0  0
   -1.2342   -3.6482    2.8240 C   0  0  0  0  0  0  0  0  0  0  0  0
   -5.6553    5.4765    0.0655 C   0  0  0  0  0  0  0  0  0  0  0  0
   -8.0297   -2.8513   -3.9248 C   0  0  0  0  0  0  0  0  0  0  0  0
   -1.3720    1.5668    0.5348 B   0  0  0  0  0  0  0  0  0  0  0  0
    8.2254    3.1796    3.0480 O   0  0  0  0  0  0  0  0  0  0  0  0
    7.9759    1.1119    3.8769 O   0  0  0  0  0  0  0  0  0  0  0  0
    9.2991    1.1738    4.3912 C   0  0  0  0  0  0  0  0  0  0  0  0
   -0.1232   -4.0342   -0.3225 O   0  0  0  0  0  0  0  0  0  0  0  0
   -0.4253   -5.3916   -0.6166 C   0  0  0  0  0  0  0  0  0  0  0  0
    1.3410   -4.7215    1.2265 O   0  0  0  0  0  0  0  0  0  0  0  0
   -0.4930   -3.2336    3.6790 O   0  0  0  0  0  0  0  0  0  0  0  0
   -1.4485   -4.9457    2.5900 O   0  0  0  0  0  0  0  0  0  0  0  0
   -0.6864   -5.8524    3.3811 C   0  0  0  0  0  0  0  0  0  0  0  0
   -8.9917   -2.3112   -4.4076 O   0  0  0  0  0  0  0  0  0  0  0  0
   -7.6872   -4.1190   -4.1751 O   0  0  0  0  0  0  0  0  0  0  0  0
   -8.5389   -4.8253   -5.0667 C   0  0  0  0  0  0  0  0  0  0  0  0
   -6.7951    5.8668    0.0433 O   0  0  0  0  0  0  0  0  0  0  0  0
   -4.6109    6.2676    0.3405 O   0  0  0  0  0  0  0  0  0  0  0  0
   -4.9184    7.6222    0.6338 C   0  0  0  0  0  0  0  0  0  0  0  0
    0.9626    7.5496   -1.3898 O   0  0  0  0  0  0  0  0  0  0  0  0
   -1.0968    6.7567   -0.9958 O   0  0  0  0  0  0  0  0  0  0  0  0
   -1.6487    7.9096   -1.6128 C   0  0  0  0  0  0  0  0  0  0  0  0
   -8.5568   -4.3346   -6.0419 H   0  0  0  0  0  0  0  0  0  0  0  0
   -9.5565   -4.8578   -4.6726 H   0  0  0  0  0  0  0  0  0  0  0  0
   -8.1274   -5.8277   -5.1498 H   0  0  0  0  0  0  0  0  0  0  0  0
   -3.9767    8.0977    0.8951 H   0  0  0  0  0  0  0  0  0  0  0  0
   -5.6226    7.6794    1.4663 H   0  0  0  0  0  0  0  0  0  0  0  0
   -5.3680    8.1072   -0.2356 H   0  0  0  0  0  0  0  0  0  0  0  0
   -2.7132    7.7165   -1.7170 H   0  0  0  0  0  0  0  0  0  0  0  0
   -1.1878    8.0757   -2.5886 H   0  0  0  0  0  0  0  0  0  0  0  0
   -1.4766    8.7909   -0.9907 H   0  0  0  0  0  0  0  0  0  0  0  0
   -1.1362   -6.8323    3.2416 H   0  0  0  0  0  0  0  0  0  0  0  0
   -0.7173   -5.5556    4.4305 H   0  0  0  0  0  0  0  0  0  0  0  0
    0.3507   -5.8483    3.0373 H   0  0  0  0  0  0  0  0  0  0  0  0
   -0.8517   -5.8791    0.2620 H   0  0  0  0  0  0  0  0  0  0  0  0
    0.4801   -5.9251   -0.9134 H   0  0  0  0  0  0  0  0  0  0  0  0
   -1.1444   -5.3694   -1.4311 H   0  0  0  0  0  0  0  0  0  0  0  0
    9.4795    0.2197    4.8791 H   0  0  0  0  0  0  0  0  0  0  0  0
    9.3904    1.9947    5.1052 H   0  0  0  0  0  0  0  0  0  0  0  0
   10.0131    1.3334    3.5808 H   0  0  0  0  0  0  0  0  0  0  0  0
   -8.1754   -0.3370   -3.0575 H   0  0  0  0  0  0  0  0  0  0  0  0
   -5.8578   -3.9113   -2.6055 H   0  0  0  0  0  0  0  0  0  0  0  0
   -7.2238    3.4330   -0.7310 H   0  0  0  0  0  0  0  0  0  0  0  0
   -2.9157   -4.2928    0.6967 H   0  0  0  0  0  0  0  0  0  0  0  0
   -3.1487    4.4211    0.0111 H   0  0  0  0  0  0  0  0  0  0  0  0
   -1.2222   -1.0021    2.8376 H   0  0  0  0  0  0  0  0  0  0  0  0
   -1.2383    4.7125    0.1962 H   0  0  0  0  0  0  0  0  0  0  0  0
   -0.5010   -1.6696   -0.4492 H   0  0  0  0  0  0  0  0  0  0  0  0
    2.6191   -2.7299    2.2731 H   0  0  0  0  0  0  0  0  0  0  0  0
    2.7889    5.9609   -0.4699 H   0  0  0  0  0  0  0  0  0  0  0  0
    6.1805    3.9817    1.7998 H   0  0  0  0  0  0  0  0  0  0  0  0
    5.8594    0.0340    3.4390 H   0  0  0  0  0  0  0  0  0  0  0  0
  1  2  2  0  0  0  0
  1 96  1  0  0  0  0
  2  3  1  0  0  0  0
  3  4  2  0  0  0  0
  3  7  1  0  0  0  0
  4  5  1  0  0  0  0
  5  6  2  0  0  0  0
  5 99  1  0  0  0  0
  6  1  1  0  0  0  0
  6 24  1  0  0  0  0
  7  8  1  0  0  0  0
  7 11  2  0  0  0  0
  8  9  1  0  0  0  0
  9 10  2  0  0  0  0
 10  4  1  0  0  0  0
 11 12  1  0  0  0  0
 11 18  1  0  0  0  0
 12 13  2  0  0  0  0
 13 14  1  0  0  0  0
 14  8  1  0  0  0  0
 14 15  2  0  0  0  0
 15 16  1  0  0  0  0
 15101  1  0  0  0  0
 16 17  2  0  0  0  0
 16 26  1  0  0  0  0
 17  9  1  0  0  0  0
 17100  1  0  0  0  0
 18 19  2  0  0  0  0
 19 20  1  0  0  0  0
 19 97  1  0  0  0  0
 20 21  2  0  0  0  0
 20 25  1  0  0  0  0
 21 12  1  0  0  0  0
 21 98  1  0  0  0  0
 22  2  1  0  0  0  0
 23 18  1  0  0  0  0
 24 69  2  0  0  0  0
 24 70  1  0  0  0  0
 25 57  1  0  0  0  0
 25 59  2  0  0  0  0
 26 54  2  0  0  0  0
 26 55  1  0  0  0  0
 27 28  2  0  0  0  0
 27 95  1  0  0  0  0
 28 29  1  0  0  0  0
 28 48  1  0  0  0  0
 29 30  2  0  0  0  0
 29 33  1  0  0  0  0
 30 31  1  0  0  0  0
 31 32  2  0  0  0  0
 31 93  1  0  0  0  0
 32 27  1  0  0  0  0
 32 50  1  0  0  0  0
 33 37  2  0  0  0  0
 34 33  1  0  0  0  0
 34 35  1  0  0  0  0
 35 36  2  0  0  0  0
 36 30  1  0  0  0  0
 37 38  1  0  0  0  0
 37 44  1  0  0  0  0
 38 39  2  0  0  0  0
 39 40  1  0  0  0  0
 40 34  1  0  0  0  0
 40 41  2  0  0  0  0
 41 42  1  0  0  0  0
 41 90  1  0  0  0  0
 42 43  2  0  0  0  0
 42 52  1  0  0  0  0
 43 35  1  0  0  0  0
 43 91  1  0  0  0  0
 44 45  2  0  0  0  0
 44 49  1  0  0  0  0
 45 46  1  0  0  0  0
 45 94  1  0  0  0  0
 46 47  2  0  0  0  0
 46 51  1  0  0  0  0
 47 38  1  0  0  0  0
 47 92  1  0  0  0  0
 50 60  2  0  0  0  0
 50 61  1  0  0  0  0
 51 66  2  0  0  0  0
 51 67  1  0  0  0  0
 52 63  2  0  0  0  0
 52 64  1  0  0  0  0
 53 49  1  0  0  0  0
 53 22  1  0  0  0  0
 53 48  1  0  0  0  0
 53 23  1  0  0  0  0
 55 56  1  0  0  0  0
 56 87  1  0  0  0  0
 56 88  1  0  0  0  0
 56 89  1  0  0  0  0
 57 58  1  0  0  0  0
 58 84  1  0  0  0  0
 58 85  1  0  0  0  0
 58 86  1  0  0  0  0
 61 62  1  0  0  0  0
 62 81  1  0  0  0  0
 62 82  1  0  0  0  0
 62 83  1  0  0  0  0
 64 65  1  0  0  0  0
 65 72  1  0  0  0  0
 65 73  1  0  0  0  0
 65 74  1  0  0  0  0
 67 68  1  0  0  0  0
 68 75  1  0  0  0  0
 68 76  1  0  0  0  0
 68 77  1  0  0  0  0
 70 71  1  0  0  0  0
 71 78  1  0  0  0  0
 71 79  1  0  0  0  0
 71 80  1  0  0  0  0
M  CHG  1   8   1
M  CHG  1  53  -1
M  END
