 energy: -21.816076827882 gnorm: 0.000763797680 xtb: 6.7.1 (edcfbbe)
          02282512543D

116124  0     0  0            999 V2000
   -1.9530    1.6316   -2.1197 C   0  0  0  0  0  0  0  0  0  0  0  0
   -1.7607    0.6535   -1.1514 C   0  0  0  0  0  0  0  0  0  0  0  0
   -0.9681    0.9855    0.0033 C   0  0  0  0  0  0  0  0  0  0  0  0
   -0.1415    2.1451   -0.0446 C   0  0  0  0  0  0  0  0  0  0  0  0
   -0.3663    3.0801   -1.0669 C   0  0  0  0  0  0  0  0  0  0  0  0
   -1.2837    2.8430   -2.0506 C   0  0  0  0  0  0  0  0  0  0  0  0
   -0.8745    0.1523    1.1638 C   0  0  0  0  0  0  0  0  0  0  0  0
    0.2742    0.3079    1.9465 C   0  0  0  0  0  0  0  0  0  0  0  0
    1.1403    1.4195    1.7229 C   0  0  0  0  0  0  0  0  0  0  0  0
    0.8728    2.3785    0.8163 N   0  0  0  0  0  0  0  0  0  0  0  0
   -1.8473   -0.7863    1.6350 C   0  0  0  0  0  0  0  0  0  0  0  0
   -1.4338   -1.7271    2.6226 C   0  0  0  0  0  0  0  0  0  0  0  0
   -0.2303   -1.6918    3.2374 N   0  0  0  0  0  0  0  0  0  0  0  0
    0.5676   -0.6437    2.9657 C   0  0  0  0  0  0  0  0  0  0  0  0
    1.7498   -0.4832    3.6950 C   0  0  0  0  0  0  0  0  0  0  0  0
    2.5866    0.5842    3.4671 C   0  0  0  0  0  0  0  0  0  0  0  0
    2.2903    1.5314    2.5133 C   0  0  0  0  0  0  0  0  0  0  0  0
   -3.2422   -0.7136    1.2890 C   0  0  0  0  0  0  0  0  0  0  0  0
   -4.0867   -1.7265    1.7294 C   0  0  0  0  0  0  0  0  0  0  0  0
   -3.6443   -2.6978    2.6110 C   0  0  0  0  0  0  0  0  0  0  0  0
   -2.3514   -2.6990    3.0534 C   0  0  0  0  0  0  0  0  0  0  0  0
   -3.7241    0.4323    0.6560 O   0  0  0  0  0  0  0  0  0  0  0  0
   -2.2275   -0.6512   -1.2810 O   0  0  0  0  0  0  0  0  0  0  0  0
   -1.6074    4.1349   -3.2724 S   0  0  0  0  0  0  0  0  0  0  0  0
   -4.8073   -3.9401    3.2274 S   0  0  0  0  0  0  0  0  0  0  0  0
    0.1799    4.0072   -1.0674 H   0  0  0  0  0  0  0  0  0  0  0  0
   -2.6164    1.4599   -2.9466 H   0  0  0  0  0  0  0  0  0  0  0  0
    2.9621    2.3543    2.3468 H   0  0  0  0  0  0  0  0  0  0  0  0
    2.0193   -1.2169    4.4341 H   0  0  0  0  0  0  0  0  0  0  0  0
   -2.0250   -3.4435    3.7555 H   0  0  0  0  0  0  0  0  0  0  0  0
   -5.1214   -1.7416    1.4417 H   0  0  0  0  0  0  0  0  0  0  0  0
   -0.9170    5.2844   -2.5674 O   0  0  0  0  0  0  0  0  0  0  0  0
   -3.2116    4.4081   -2.8453 O   0  0  0  0  0  0  0  0  0  0  0  0
   -3.3354    4.9892   -1.5905 C   0  0  0  0  0  0  0  0  0  0  0  0
    4.1092    0.7187    4.4280 S   0  0  0  0  0  0  0  0  0  0  0  0
    4.2743   -0.7439    4.7812 O   0  0  0  0  0  0  0  0  0  0  0  0
    5.1572    0.8607    3.1222 O   0  0  0  0  0  0  0  0  0  0  0  0
    5.2308   -0.3067    2.3737 C   0  0  0  0  0  0  0  0  0  0  0  0
   -5.5856   -4.1579    1.9494 O   0  0  0  0  0  0  0  0  0  0  0  0
   -3.7308   -5.2288    3.1958 O   0  0  0  0  0  0  0  0  0  0  0  0
   -3.4612   -5.6501    1.9004 C   0  0  0  0  0  0  0  0  0  0  0  0
   -5.0273    0.3313    0.1327 C   0  0  0  0  0  0  0  0  0  0  0  0
   -2.8645   -0.9396   -2.5009 C   0  0  0  0  0  0  0  0  0  0  0  0
   -2.8155   -6.5317    1.9386 H   0  0  0  0  0  0  0  0  0  0  0  0
   -2.9636   -4.8495    1.3462 H   0  0  0  0  0  0  0  0  0  0  0  0
   -4.4088   -5.9013    1.4127 H   0  0  0  0  0  0  0  0  0  0  0  0
    5.9980   -0.1854    1.6040 H   0  0  0  0  0  0  0  0  0  0  0  0
    4.2648   -0.5074    1.9028 H   0  0  0  0  0  0  0  0  0  0  0  0
    5.4981   -1.1338    3.0390 H   0  0  0  0  0  0  0  0  0  0  0  0
   -3.1417   -1.9943   -2.5006 H   0  0  0  0  0  0  0  0  0  0  0  0
   -2.1796   -0.7510   -3.3286 H   0  0  0  0  0  0  0  0  0  0  0  0
   -3.7662   -0.3351   -2.6018 H   0  0  0  0  0  0  0  0  0  0  0  0
   -5.2195    1.2168   -0.4743 H   0  0  0  0  0  0  0  0  0  0  0  0
   -5.7586    0.2891    0.9401 H   0  0  0  0  0  0  0  0  0  0  0  0
   -5.1016   -0.5562   -0.4965 H   0  0  0  0  0  0  0  0  0  0  0  0
   -4.3749    5.2916   -1.4387 H   0  0  0  0  0  0  0  0  0  0  0  0
   -2.6813    5.8661   -1.5393 H   0  0  0  0  0  0  0  0  0  0  0  0
   -3.0499    4.2640   -0.8244 H   0  0  0  0  0  0  0  0  0  0  0  0
   -2.2419    2.3602    3.1505 C   0  0  0  0  0  0  0  0  0  0  0  0
   -2.1575    1.4270    4.1740 C   0  0  0  0  0  0  0  0  0  0  0  0
   -1.1099    1.5581    5.1478 C   0  0  0  0  0  0  0  0  0  0  0  0
   -0.1331    2.5804    4.9713 C   0  0  0  0  0  0  0  0  0  0  0  0
   -0.3197    3.5261    3.9471 C   0  0  0  0  0  0  0  0  0  0  0  0
   -1.3432    3.4047    3.0487 C   0  0  0  0  0  0  0  0  0  0  0  0
   -0.9026    0.6194    6.2078 C   0  0  0  0  0  0  0  0  0  0  0  0
    0.3742    0.5834    6.7780 C   0  0  0  0  0  0  0  0  0  0  0  0
    1.2870    1.6507    6.5372 C   0  0  0  0  0  0  0  0  0  0  0  0
    1.0127    2.6577    5.6878 N   0  0  0  0  0  0  0  0  0  0  0  0
   -1.8388   -0.3393    6.7176 C   0  0  0  0  0  0  0  0  0  0  0  0
   -1.3129   -1.5035    7.3548 C   0  0  0  0  0  0  0  0  0  0  0  0
   -0.0367   -1.5956    7.7897 N   0  0  0  0  0  0  0  0  0  0  0  0
    0.7466   -0.5135    7.6117 C   0  0  0  0  0  0  0  0  0  0  0  0
    1.9940   -0.4621    8.2434 C   0  0  0  0  0  0  0  0  0  0  0  0
    2.8318    0.6183    8.0851 C   0  0  0  0  0  0  0  0  0  0  0  0
    2.5035    1.6497    7.2320 C   0  0  0  0  0  0  0  0  0  0  0  0
   -3.2630   -0.1272    6.7513 C   0  0  0  0  0  0  0  0  0  0  0  0
   -4.0763   -1.2265    6.9964 C   0  0  0  0  0  0  0  0  0  0  0  0
   -3.5335   -2.4472    7.3667 C   0  0  0  0  0  0  0  0  0  0  0  0
   -2.1915   -2.5701    7.6107 C   0  0  0  0  0  0  0  0  0  0  0  0
   -3.7532    1.1720    6.6196 O   0  0  0  0  0  0  0  0  0  0  0  0
   -3.0281    0.3343    4.1923 O   0  0  0  0  0  0  0  0  0  0  0  0
   -1.4686    4.5867    1.6834 S   0  0  0  0  0  0  0  0  0  0  0  0
   -4.6432   -3.8666    7.5221 S   0  0  0  0  0  0  0  0  0  0  0  0
    0.3886    4.3287    3.8425 H   0  0  0  0  0  0  0  0  0  0  0  0
   -2.9599    2.2246    2.3630 H   0  0  0  0  0  0  0  0  0  0  0  0
    3.1878    2.4666    7.0891 H   0  0  0  0  0  0  0  0  0  0  0  0
    2.2992   -1.2744    8.8792 H   0  0  0  0  0  0  0  0  0  0  0  0
   -1.7960   -3.4971    7.9857 H   0  0  0  0  0  0  0  0  0  0  0  0
   -5.1432   -1.1480    6.8955 H   0  0  0  0  0  0  0  0  0  0  0  0
   -1.6560    5.8513    2.4959 O   0  0  0  0  0  0  0  0  0  0  0  0
   -3.0542    4.2205    1.2528 O   0  0  0  0  0  0  0  0  0  0  0  0
   -3.9788    4.8205    2.0985 C   0  0  0  0  0  0  0  0  0  0  0  0
    4.3702    0.6838    9.0368 S   0  0  0  0  0  0  0  0  0  0  0  0
    4.4202   -0.7700    9.4614 O   0  0  0  0  0  0  0  0  0  0  0  0
    5.4091    0.6878    7.7145 O   0  0  0  0  0  0  0  0  0  0  0  0
    5.5770   -0.5841    7.1870 C   0  0  0  0  0  0  0  0  0  0  0  0
   -5.2211   -3.8363    6.1198 O   0  0  0  0  0  0  0  0  0  0  0  0
   -3.4648   -5.0600    7.3822 O   0  0  0  0  0  0  0  0  0  0  0  0
   -3.0105   -5.2170    6.0806 C   0  0  0  0  0  0  0  0  0  0  0  0
   -5.0598    1.3608    7.1105 C   0  0  0  0  0  0  0  0  0  0  0  0
   -4.3536    0.6534    3.8286 C   0  0  0  0  0  0  0  0  0  0  0  0
   -2.3109   -6.0565    6.0450 H   0  0  0  0  0  0  0  0  0  0  0  0
   -2.5115   -4.3032    5.7519 H   0  0  0  0  0  0  0  0  0  0  0  0
   -3.8666   -5.4164    5.4296 H   0  0  0  0  0  0  0  0  0  0  0  0
    6.2473   -0.5277    6.3241 H   0  0  0  0  0  0  0  0  0  0  0  0
    4.6033   -0.9710    6.8689 H   0  0  0  0  0  0  0  0  0  0  0  0
    5.9991   -1.2343    7.9600 H   0  0  0  0  0  0  0  0  0  0  0  0
   -4.9972   -0.1856    4.0949 H   0  0  0  0  0  0  0  0  0  0  0  0
   -4.4177    0.8319    2.7575 H   0  0  0  0  0  0  0  0  0  0  0  0
   -4.6694    1.5429    4.3743 H   0  0  0  0  0  0  0  0  0  0  0  0
   -5.2723    2.4304    7.1195 H   0  0  0  0  0  0  0  0  0  0  0  0
   -5.1290    0.9755    8.1285 H   0  0  0  0  0  0  0  0  0  0  0  0
   -5.7817    0.8602    6.4651 H   0  0  0  0  0  0  0  0  0  0  0  0
   -4.9890    4.5522    1.7776 H   0  0  0  0  0  0  0  0  0  0  0  0
   -3.8440    5.9053    2.0467 H   0  0  0  0  0  0  0  0  0  0  0  0
   -3.8124    4.4860    3.1258 H   0  0  0  0  0  0  0  0  0  0  0  0
  1  2  2  0  0  0  0
  1  6  1  0  0  0  0
  1 27  1  0  0  0  0
  2  3  1  0  0  0  0
  2 23  1  0  0  0  0
  3  4  2  0  0  0  0
  3  7  1  0  0  0  0
  4  5  1  0  0  0  0
  4 10  1  0  0  0  0
  5  6  2  0  0  0  0
  5 26  1  0  0  0  0
  6 24  1  0  0  0  0
  7  8  2  0  0  0  0
  7 11  1  0  0  0  0
  8  9  1  0  0  0  0
  8 14  1  0  0  0  0
  9 10  1  0  0  0  0
  9 17  2  0  0  0  0
 11 12  2  0  0  0  0
 11 18  1  0  0  0  0
 12 13  1  0  0  0  0
 12 21  1  0  0  0  0
 13 14  2  0  0  0  0
 14 15  1  0  0  0  0
 15 16  2  0  0  0  0
 15 29  1  0  0  0  0
 16 17  1  0  0  0  0
 16 35  1  0  0  0  0
 17 28  1  0  0  0  0
 18 19  2  0  0  0  0
 18 22  1  0  0  0  0
 19 20  1  0  0  0  0
 19 31  1  0  0  0  0
 20 21  2  0  0  0  0
 20 25  1  0  0  0  0
 21 30  1  0  0  0  0
 22 42  1  0  0  0  0
 23 43  1  0  0  0  0
 24 32  2  0  0  0  0
 24 33  1  0  0  0  0
 25 39  2  0  0  0  0
 25 40  1  0  0  0  0
 33 34  1  0  0  0  0
 34 56  1  0  0  0  0
 34 57  1  0  0  0  0
 34 58  1  0  0  0  0
 35 36  2  0  0  0  0
 35 37  1  0  0  0  0
 37 38  1  0  0  0  0
 38 47  1  0  0  0  0
 38 48  1  0  0  0  0
 38 49  1  0  0  0  0
 40 41  1  0  0  0  0
 41 44  1  0  0  0  0
 41 45  1  0  0  0  0
 41 46  1  0  0  0  0
 42 53  1  0  0  0  0
 42 54  1  0  0  0  0
 42 55  1  0  0  0  0
 43 50  1  0  0  0  0
 43 51  1  0  0  0  0
 43 52  1  0  0  0  0
 59 60  2  0  0  0  0
 59 64  1  0  0  0  0
 59 85  1  0  0  0  0
 60 61  1  0  0  0  0
 60 81  1  0  0  0  0
 61 62  2  0  0  0  0
 61 65  1  0  0  0  0
 62 63  1  0  0  0  0
 62 68  1  0  0  0  0
 63 64  2  0  0  0  0
 63 84  1  0  0  0  0
 64 82  1  0  0  0  0
 65 66  2  0  0  0  0
 65 69  1  0  0  0  0
 66 67  1  0  0  0  0
 66 72  1  0  0  0  0
 67 68  1  0  0  0  0
 67 75  2  0  0  0  0
 69 70  2  0  0  0  0
 69 76  1  0  0  0  0
 70 71  1  0  0  0  0
 70 79  1  0  0  0  0
 71 72  2  0  0  0  0
 72 73  1  0  0  0  0
 73 74  2  0  0  0  0
 73 87  1  0  0  0  0
 74 75  1  0  0  0  0
 74 93  1  0  0  0  0
 75 86  1  0  0  0  0
 76 77  2  0  0  0  0
 76 80  1  0  0  0  0
 77 78  1  0  0  0  0
 77 89  1  0  0  0  0
 78 79  2  0  0  0  0
 78 83  1  0  0  0  0
 79 88  1  0  0  0  0
 80100  1  0  0  0  0
 81101  1  0  0  0  0
 82 90  2  0  0  0  0
 82 91  1  0  0  0  0
 83 97  2  0  0  0  0
 83 98  1  0  0  0  0
 91 92  1  0  0  0  0
 92114  1  0  0  0  0
 92115  1  0  0  0  0
 92116  1  0  0  0  0
 93 94  2  0  0  0  0
 93 95  1  0  0  0  0
 95 96  1  0  0  0  0
 96105  1  0  0  0  0
 96106  1  0  0  0  0
 96107  1  0  0  0  0
 98 99  1  0  0  0  0
 99102  1  0  0  0  0
 99103  1  0  0  0  0
 99104  1  0  0  0  0
100111  1  0  0  0  0
100112  1  0  0  0  0
100113  1  0  0  0  0
101108  1  0  0  0  0
101109  1  0  0  0  0
101110  1  0  0  0  0
M  END
