
 OpenBabel11142411073D

224240  0  0  0  0  0  0  0  0999 V2000
   -4.7025    1.0834   -0.9232 C   0  0  0  0  0  0  0  0  0  0  0  0
   -4.4055   -0.2564   -0.6709 C   0  0  0  0  0  0  0  0  0  0  0  0
   -3.1407   -0.6551   -0.1721 C   0  0  0  0  0  0  0  0  0  0  0  0
   -2.1790    0.3763   -0.0291 C   0  0  0  0  0  0  0  0  0  0  0  0
   -2.4393    1.7384   -0.3306 C   0  0  0  0  0  0  0  0  0  0  0  0
   -3.7459    2.0812   -0.7100 C   0  0  0  0  0  0  0  0  0  0  0  0
   -1.4558    2.7752   -0.1665 C   0  0  0  0  0  0  0  0  0  0  0  0
   -1.9111    4.1184   -0.0597 C   0  0  0  0  0  0  0  0  0  0  0  0
   -3.2267    4.4324   -0.3957 C   0  0  0  0  0  0  0  0  0  0  0  0
   -4.1121    3.4272   -0.7811 C   0  0  0  0  0  0  0  0  0  0  0  0
   -0.0493    2.5702   -0.0511 C   0  0  0  0  0  0  0  0  0  0  0  0
    0.7498    3.5534    0.5075 C   0  0  0  0  0  0  0  0  0  0  0  0
    0.2582    4.8317    0.7848 C   0  0  0  0  0  0  0  0  0  0  0  0
   -1.0550    5.1290    0.4184 C   0  0  0  0  0  0  0  0  0  0  0  0
    0.8260    1.5138   -0.3942 C   0  0  0  0  0  0  0  0  0  0  0  0
    2.0192    1.8245    0.2417 C   0  0  0  0  0  0  0  0  0  0  0  0
    0.7204    0.3283   -1.2080 C   0  0  0  0  0  0  0  0  0  0  0  0
    1.7634   -0.6334   -1.0585 C   0  0  0  0  0  0  0  0  0  0  0  0
    2.9261   -0.3244   -0.3185 C   0  0  0  0  0  0  0  0  0  0  0  0
    3.0858    0.9295    0.2801 C   0  0  0  0  0  0  0  0  0  0  0  0
   -0.3148    0.0466   -2.1762 C   0  0  0  0  0  0  0  0  0  0  0  0
   -0.4391   -1.2536   -2.7051 C   0  0  0  0  0  0  0  0  0  0  0  0
    0.5314   -2.2179   -2.4244 C   0  0  0  0  0  0  0  0  0  0  0  0
    1.6500   -1.8922   -1.6628 C   0  0  0  0  0  0  0  0  0  0  0  0
   -2.2759    0.7657   -3.5604 C   0  0  0  0  0  0  0  0  0  0  0  0
   -2.4385   -0.5917   -3.9275 C   0  0  0  0  0  0  0  0  0  0  0  0
   -1.5212   -1.5696   -3.5341 C   0  0  0  0  0  0  0  0  0  0  0  0
   -1.1901    1.0365   -2.6913 C   0  0  0  0  0  0  0  0  0  0  0  0
   -3.1822    1.8970   -4.1020 C   0  0  0  0  0  0  0  0  0  0  0  0
   -2.8268   -2.1087    0.2337 C   0  0  0  0  0  0  0  0  0  0  0  0
   -1.5845   -4.0122    0.8381 C   0  0  0  0  0  0  0  0  0  0  0  0
   -3.1284   -4.3272    0.7487 C   0  0  0  0  0  0  0  0  0  0  0  0
   -0.8782   -4.5598    2.0996 C   0  0  0  0  0  0  0  0  0  0  0  0
   -0.7817   -4.5149   -0.3834 C   0  0  0  0  0  0  0  0  0  0  0  0
   -3.4703   -5.5758   -0.0972 C   0  0  0  0  0  0  0  0  0  0  0  0
   -3.8004   -4.4919    2.1364 C   0  0  0  0  0  0  0  0  0  0  0  0
   -4.0526    4.0708   -4.4905 C   0  0  0  0  0  0  0  0  0  0  0  0
   -4.6826    2.9924   -5.4580 C   0  0  0  0  0  0  0  0  0  0  0  0
   -5.0710    4.5947   -3.4583 C   0  0  0  0  0  0  0  0  0  0  0  0
   -3.4350    5.3186   -5.1603 C   0  0  0  0  0  0  0  0  0  0  0  0
   -6.2323    3.0098   -5.5442 C   0  0  0  0  0  0  0  0  0  0  0  0
   -4.1240    3.1061   -6.8921 C   0  0  0  0  0  0  0  0  0  0  0  0
    1.9933    3.0813    0.7497 N   0  0  0  0  0  0  0  0  0  0  0  0
    5.9472    4.0718    5.6500 Si  0  0  0  0  0  0  0  0  0  0  0  0
    4.3398    3.5489    4.8289 C   0  0  0  0  0  0  0  0  0  0  0  0
    4.3678    3.8424    3.3329 C   0  0  0  0  0  0  0  0  0  0  0  0
    3.2107    3.3019    2.7353 O   0  0  0  0  0  0  0  0  0  0  0  0
    5.8141    3.8152    7.4695 C   0  0  0  0  0  0  0  0  0  0  0  0
    6.2882    5.8861    5.3879 C   0  0  0  0  0  0  0  0  0  0  0  0
    7.3491    3.0092    5.0322 C   0  0  0  0  0  0  0  0  0  0  0  0
    3.0940    3.7839    1.4145 C   0  0  0  0  0  0  0  0  0  0  0  0
   -3.6640   -3.1006    0.1794 N   0  0  0  0  0  0  0  0  0  0  0  0
   -4.8010   -3.0086   -0.1647 O   0  0  0  0  0  0  0  0  0  0  0  0
   -1.5838   -2.5692    0.7699 N   0  0  0  0  0  0  0  0  0  0  0  0
   -0.4561   -1.8555    0.8719 O   0  0  0  0  0  0  0  0  0  0  0  0
   -3.0283    3.2893   -3.8287 N   0  0  0  0  0  0  0  0  0  0  0  0
   -2.1128    3.8433   -3.0264 O   0  0  0  0  0  0  0  0  0  0  0  0
   -4.1653    1.7336   -4.9338 N   0  0  0  0  0  0  0  0  0  0  0  0
   -4.5063    0.6821   -5.3746 O   0  0  0  0  0  0  0  0  0  0  0  0
   -5.5806    3.7447   -2.9747 H   0  0  0  0  0  0  0  0  0  0  0  0
   -5.8605    5.2061   -3.9433 H   0  0  0  0  0  0  0  0  0  0  0  0
   -4.5843    5.2462   -2.7025 H   0  0  0  0  0  0  0  0  0  0  0  0
   -2.6176    5.0540   -5.8579 H   0  0  0  0  0  0  0  0  0  0  0  0
   -2.9907    5.9841   -4.3855 H   0  0  0  0  0  0  0  0  0  0  0  0
   -4.2164    5.8975   -5.6966 H   0  0  0  0  0  0  0  0  0  0  0  0
   -3.0144    3.0279   -6.8758 H   0  0  0  0  0  0  0  0  0  0  0  0
   -4.4184    4.0669   -7.3609 H   0  0  0  0  0  0  0  0  0  0  0  0
   -4.5049    2.2760   -7.5228 H   0  0  0  0  0  0  0  0  0  0  0  0
   -6.7211    2.8127   -4.5691 H   0  0  0  0  0  0  0  0  0  0  0  0
   -6.5942    2.2216   -6.2359 H   0  0  0  0  0  0  0  0  0  0  0  0
   -6.5801    3.9938   -5.9279 H   0  0  0  0  0  0  0  0  0  0  0  0
    4.2117    2.4590    5.0004 H   0  0  0  0  0  0  0  0  0  0  0  0
    3.4868    4.0851    5.2993 H   0  0  0  0  0  0  0  0  0  0  0  0
    4.4161    4.9517    3.2130 H   0  0  0  0  0  0  0  0  0  0  0  0
    5.2623    3.3621    2.8828 H   0  0  0  0  0  0  0  0  0  0  0  0
    4.0237    3.6319    0.8196 H   0  0  0  0  0  0  0  0  0  0  0  0
    2.8906    4.8733    1.4440 H   0  0  0  0  0  0  0  0  0  0  0  0
    7.4911    3.1604    3.9441 H   0  0  0  0  0  0  0  0  0  0  0  0
    7.1074    1.9444    5.2330 H   0  0  0  0  0  0  0  0  0  0  0  0
    8.2778    3.2816    5.5737 H   0  0  0  0  0  0  0  0  0  0  0  0
    5.0334    4.5141    7.8206 H   0  0  0  0  0  0  0  0  0  0  0  0
    6.7723    4.0615    7.9678 H   0  0  0  0  0  0  0  0  0  0  0  0
    5.5486    2.7563    7.6634 H   0  0  0  0  0  0  0  0  0  0  0  0
    6.4245    6.0948    4.3086 H   0  0  0  0  0  0  0  0  0  0  0  0
    7.2066    6.1658    5.9438 H   0  0  0  0  0  0  0  0  0  0  0  0
    5.4313    6.4739    5.7785 H   0  0  0  0  0  0  0  0  0  0  0  0
    0.8709    5.6085    1.2163 H   0  0  0  0  0  0  0  0  0  0  0  0
   -1.4238    6.1374    0.5644 H   0  0  0  0  0  0  0  0  0  0  0  0
   -3.5829    5.4543   -0.3404 H   0  0  0  0  0  0  0  0  0  0  0  0
   -5.1359    3.6973   -0.9707 H   0  0  0  0  0  0  0  0  0  0  0  0
   -0.9843    2.0329   -2.4136 H   0  0  0  0  0  0  0  0  0  0  0  0
   -3.2254   -0.9437   -4.5659 H   0  0  0  0  0  0  0  0  0  0  0  0
   -1.6515   -2.5812   -3.9011 H   0  0  0  0  0  0  0  0  0  0  0  0
    0.4596   -3.2104   -2.8532 H   0  0  0  0  0  0  0  0  0  0  0  0
    2.4231   -2.6392   -1.5286 H   0  0  0  0  0  0  0  0  0  0  0  0
    3.7352   -1.0414   -0.2467 H   0  0  0  0  0  0  0  0  0  0  0  0
    4.0074    1.1750    0.7908 H   0  0  0  0  0  0  0  0  0  0  0  0
   -1.2250    0.1559    0.3727 H   0  0  0  0  0  0  0  0  0  0  0  0
   -5.2216   -0.9334   -0.8342 H   0  0  0  0  0  0  0  0  0  0  0  0
   -5.7080    1.3455   -1.2331 H   0  0  0  0  0  0  0  0  0  0  0  0
   -1.2230   -4.1320   -1.3269 H   0  0  0  0  0  0  0  0  0  0  0  0
   -0.7615   -5.6247   -0.4194 H   0  0  0  0  0  0  0  0  0  0  0  0
    0.2721   -4.1674   -0.3249 H   0  0  0  0  0  0  0  0  0  0  0  0
   -1.3538   -4.2280    3.0324 H   0  0  0  0  0  0  0  0  0  0  0  0
    0.1801   -4.2215    2.1333 H   0  0  0  0  0  0  0  0  0  0  0  0
   -0.8933   -5.6702    2.0974 H   0  0  0  0  0  0  0  0  0  0  0  0
   -3.6217   -3.5951    2.7688 H   0  0  0  0  0  0  0  0  0  0  0  0
   -3.4194   -5.3907    2.6658 H   0  0  0  0  0  0  0  0  0  0  0  0
   -4.9004   -4.6075    2.0273 H   0  0  0  0  0  0  0  0  0  0  0  0
   -3.1147   -5.4794   -1.1425 H   0  0  0  0  0  0  0  0  0  0  0  0
   -4.5698   -5.7264   -0.1432 H   0  0  0  0  0  0  0  0  0  0  0  0
   -3.0150   -6.4810    0.3604 H   0  0  0  0  0  0  0  0  0  0  0  0
   -4.9287    1.0756    7.6917 C   0  0  0  0  0  0  0  0  0  0  0  0
   -4.5807   -0.2750    7.7065 C   0  0  0  0  0  0  0  0  0  0  0  0
   -3.2678   -0.6883    8.0372 C   0  0  0  0  0  0  0  0  0  0  0  0
   -2.3185    0.3369    8.2208 C   0  0  0  0  0  0  0  0  0  0  0  0
   -2.6197    1.7060    8.1269 C   0  0  0  0  0  0  0  0  0  0  0  0
   -3.9734    2.0610    7.9597 C   0  0  0  0  0  0  0  0  0  0  0  0
   -1.6165    2.7190    8.2970 C   0  0  0  0  0  0  0  0  0  0  0  0
   -2.0769    4.0426    8.5696 C   0  0  0  0  0  0  0  0  0  0  0  0
   -3.4354    4.3625    8.4472 C   0  0  0  0  0  0  0  0  0  0  0  0
   -4.3639    3.3903    8.1008 C   0  0  0  0  0  0  0  0  0  0  0  0
   -0.1830    2.5110    8.2671 C   0  0  0  0  0  0  0  0  0  0  0  0
    0.6392    3.4810    8.8201 C   0  0  0  0  0  0  0  0  0  0  0  0
    0.1662    4.7377    9.1989 C   0  0  0  0  0  0  0  0  0  0  0  0
   -1.1807    5.0365    8.9980 C   0  0  0  0  0  0  0  0  0  0  0  0
    0.7177    1.4900    7.8005 C   0  0  0  0  0  0  0  0  0  0  0  0
    1.9457    1.8190    8.3515 C   0  0  0  0  0  0  0  0  0  0  0  0
    0.6344    0.3242    6.9473 C   0  0  0  0  0  0  0  0  0  0  0  0
    1.7235   -0.5986    6.9817 C   0  0  0  0  0  0  0  0  0  0  0  0
    2.9063   -0.2760    7.6619 C   0  0  0  0  0  0  0  0  0  0  0  0
    3.0467    0.9559    8.2901 C   0  0  0  0  0  0  0  0  0  0  0  0
   -0.4249    0.0373    6.0338 C   0  0  0  0  0  0  0  0  0  0  0  0
   -0.5168   -1.2259    5.4176 C   0  0  0  0  0  0  0  0  0  0  0  0
    0.5015   -2.1650    5.5897 C   0  0  0  0  0  0  0  0  0  0  0  0
    1.6364   -1.8320    6.3202 C   0  0  0  0  0  0  0  0  0  0  0  0
   -2.4656    0.7602    4.8416 C   0  0  0  0  0  0  0  0  0  0  0  0
   -2.5888   -0.5575    4.3425 C   0  0  0  0  0  0  0  0  0  0  0  0
   -1.6172   -1.5193    4.6107 C   0  0  0  0  0  0  0  0  0  0  0  0
   -1.3582    1.0130    5.6594 C   0  0  0  0  0  0  0  0  0  0  0  0
   -3.4288    1.8856    4.4833 C   0  0  0  0  0  0  0  0  0  0  0  0
   -2.8864   -2.1501    8.2813 C   0  0  0  0  0  0  0  0  0  0  0  0
   -1.5920   -4.0348    8.8416 C   0  0  0  0  0  0  0  0  0  0  0  0
   -3.1321   -4.3775    8.7434 C   0  0  0  0  0  0  0  0  0  0  0  0
   -0.9041   -4.4879   10.1497 C   0  0  0  0  0  0  0  0  0  0  0  0
   -0.7598   -4.5634    7.6506 C   0  0  0  0  0  0  0  0  0  0  0  0
   -3.4572   -5.6203    7.8859 C   0  0  0  0  0  0  0  0  0  0  0  0
   -3.8004   -4.5610   10.1313 C   0  0  0  0  0  0  0  0  0  0  0  0
   -4.2810    4.0723    4.1742 C   0  0  0  0  0  0  0  0  0  0  0  0
   -5.0654    2.9823    3.3559 C   0  0  0  0  0  0  0  0  0  0  0  0
   -5.1484    4.6401    5.2976 C   0  0  0  0  0  0  0  0  0  0  0  0
   -3.6965    5.2754    3.3780 C   0  0  0  0  0  0  0  0  0  0  0  0
   -6.6102    3.0680    3.3268 C   0  0  0  0  0  0  0  0  0  0  0  0
   -4.6303    3.0128    1.9335 C   0  0  0  0  0  0  0  0  0  0  0  0
    1.9104    3.0424    8.9259 N   0  0  0  0  0  0  0  0  0  0  0  0
    5.8089    4.0336   13.8038 Si  0  0  0  0  0  0  0  0  0  0  0  0
    4.1822    3.6145   12.9661 C   0  0  0  0  0  0  0  0  0  0  0  0
    4.1875    4.0176   11.5021 C   0  0  0  0  0  0  0  0  0  0  0  0
    2.9266    3.7142   10.9344 O   0  0  0  0  0  0  0  0  0  0  0  0
    5.5921    3.6856   15.6200 C   0  0  0  0  0  0  0  0  0  0  0  0
    6.2056    5.8411   13.5477 C   0  0  0  0  0  0  0  0  0  0  0  0
    7.2248    3.0046   13.1396 C   0  0  0  0  0  0  0  0  0  0  0  0
    3.0328    3.7548    9.5296 C   0  0  0  0  0  0  0  0  0  0  0  0
   -3.7015   -3.1556    8.2013 N   0  0  0  0  0  0  0  0  0  0  0  0
   -4.8508   -3.0729    7.9028 O   0  0  0  0  0  0  0  0  0  0  0  0
   -1.6119   -2.6009    8.7381 N   0  0  0  0  0  0  0  0  0  0  0  0
   -0.4935   -1.8735    8.8458 O   0  0  0  0  0  0  0  0  0  0  0  0
   -3.2071    3.2791    4.7209 N   0  0  0  0  0  0  0  0  0  0  0  0
   -2.1891    3.8295    5.3942 O   0  0  0  0  0  0  0  0  0  0  0  0
   -4.5421    1.7241    3.8486 N   0  0  0  0  0  0  0  0  0  0  0  0
   -4.9690    0.6695    3.4887 O   0  0  0  0  0  0  0  0  0  0  0  0
   -5.6069    3.8076    5.8576 H   0  0  0  0  0  0  0  0  0  0  0  0
   -5.9707    5.2522    4.8688 H   0  0  0  0  0  0  0  0  0  0  0  0
   -4.5538    5.2869    5.9738 H   0  0  0  0  0  0  0  0  0  0  0  0
   -2.9554    4.9537    2.6184 H   0  0  0  0  0  0  0  0  0  0  0  0
   -3.1493    5.9613    4.0611 H   0  0  0  0  0  0  0  0  0  0  0  0
   -4.5001    5.8560    2.8790 H   0  0  0  0  0  0  0  0  0  0  0  0
   -3.5229    2.8942    1.8797 H   0  0  0  0  0  0  0  0  0  0  0  0
   -4.9592    3.9699    1.4875 H   0  0  0  0  0  0  0  0  0  0  0  0
   -5.1016    2.1644    1.4046 H   0  0  0  0  0  0  0  0  0  0  0  0
   -7.0627    2.9630    4.3271 H   0  0  0  0  0  0  0  0  0  0  0  0
   -7.0275    2.2584    2.6853 H   0  0  0  0  0  0  0  0  0  0  0  0
   -6.9202    4.0372    2.8743 H   0  0  0  0  0  0  0  0  0  0  0  0
    4.0030    2.5214   13.0624 H   0  0  0  0  0  0  0  0  0  0  0  0
    3.3695    4.1621   13.4851 H   0  0  0  0  0  0  0  0  0  0  0  0
    4.3706    5.1104   11.4142 H   0  0  0  0  0  0  0  0  0  0  0  0
    5.0220    3.4486   11.0264 H   0  0  0  0  0  0  0  0  0  0  0  0
    3.9482    3.2445    9.2114 H   0  0  0  0  0  0  0  0  0  0  0  0
    3.0680    4.8000    9.1510 H   0  0  0  0  0  0  0  0  0  0  0  0
    7.3687    3.2053   12.0583 H   0  0  0  0  0  0  0  0  0  0  0  0
    7.0069    1.9274   13.2905 H   0  0  0  0  0  0  0  0  0  0  0  0
    8.1547    3.2681   13.6855 H   0  0  0  0  0  0  0  0  0  0  0  0
    4.7539    4.3017   16.0054 H   0  0  0  0  0  0  0  0  0  0  0  0
    6.5244    3.9409   16.1625 H   0  0  0  0  0  0  0  0  0  0  0  0
    5.3563    2.6109   15.7612 H   0  0  0  0  0  0  0  0  0  0  0  0
    6.3671    6.0356   12.4670 H   0  0  0  0  0  0  0  0  0  0  0  0
    7.1289    6.1003   14.1040 H   0  0  0  0  0  0  0  0  0  0  0  0
    5.3610    6.4598   13.9124 H   0  0  0  0  0  0  0  0  0  0  0  0
    0.8290    5.4945    9.5943 H   0  0  0  0  0  0  0  0  0  0  0  0
   -1.5393    6.0309    9.2374 H   0  0  0  0  0  0  0  0  0  0  0  0
   -3.7859    5.3731    8.6198 H   0  0  0  0  0  0  0  0  0  0  0  0
   -5.4068    3.6689    8.0173 H   0  0  0  0  0  0  0  0  0  0  0  0
   -1.1880    1.9831    6.0174 H   0  0  0  0  0  0  0  0  0  0  0  0
   -3.3794   -0.8804    3.6908 H   0  0  0  0  0  0  0  0  0  0  0  0
   -1.7227   -2.4894    4.1670 H   0  0  0  0  0  0  0  0  0  0  0  0
    0.4526   -3.1321    5.1024 H   0  0  0  0  0  0  0  0  0  0  0  0
    2.4487   -2.5477    6.3762 H   0  0  0  0  0  0  0  0  0  0  0  0
    3.7472   -0.9598    7.6620 H   0  0  0  0  0  0  0  0  0  0  0  0
    3.9936    1.1840    8.7524 H   0  0  0  0  0  0  0  0  0  0  0  0
   -1.3285    0.1078    8.4923 H   0  0  0  0  0  0  0  0  0  0  0  0
   -5.3925   -0.9522    7.5212 H   0  0  0  0  0  0  0  0  0  0  0  0
   -5.9629    1.3453    7.5083 H   0  0  0  0  0  0  0  0  0  0  0  0
   -1.1869   -4.2127    6.6873 H   0  0  0  0  0  0  0  0  0  0  0  0
   -0.7255   -5.6730    7.6504 H   0  0  0  0  0  0  0  0  0  0  0  0
    0.2875   -4.1962    7.7114 H   0  0  0  0  0  0  0  0  0  0  0  0
   -1.3784   -4.0344   11.0439 H   0  0  0  0  0  0  0  0  0  0  0  0
    0.1593   -4.1638   10.1604 H   0  0  0  0  0  0  0  0  0  0  0  0
   -0.9327   -5.5941   10.2392 H   0  0  0  0  0  0  0  0  0  0  0  0
   -3.6434   -3.6570   10.7614 H   0  0  0  0  0  0  0  0  0  0  0  0
   -3.4005   -5.4484   10.6631 H   0  0  0  0  0  0  0  0  0  0  0  0
   -4.8985   -4.6929   10.0225 H   0  0  0  0  0  0  0  0  0  0  0  0
   -3.0993   -5.5105    6.8428 H   0  0  0  0  0  0  0  0  0  0  0  0
   -4.5550   -5.7821    7.8380 H   0  0  0  0  0  0  0  0  0  0  0  0
   -2.9927   -6.5228    8.3394 H   0  0  0  0  0  0  0  0  0  0  0  0
  1  2  2  0  0  0  0
  1100  1  0  0  0  0
  2  3  1  0  0  0  0
  2 99  1  0  0  0  0
  3  4  2  0  0  0  0
  3 30  1  0  0  0  0
  4  5  1  0  0  0  0
  4 98  1  0  0  0  0
  5  6  2  0  0  0  0
  5  7  1  0  0  0  0
  6  1  1  0  0  0  0
  7  8  2  0  0  0  0
  7 11  1  0  0  0  0
  8  9  1  0  0  0  0
  9 10  2  0  0  0  0
  9 89  1  0  0  0  0
 10  6  1  0  0  0  0
 10 90  1  0  0  0  0
 11 12  2  0  0  0  0
 11 15  1  0  0  0  0
 12 43  1  0  0  0  0
 12 13  1  0  0  0  0
 13 14  2  0  0  0  0
 13 87  1  0  0  0  0
 14  8  1  0  0  0  0
 14 88  1  0  0  0  0
 15 16  1  0  0  0  0
 15 17  2  0  0  0  0
 16 43  1  0  0  0  0
 17 18  1  0  0  0  0
 17 21  1  0  0  0  0
 18 19  2  0  0  0  0
 19 20  1  0  0  0  0
 19 96  1  0  0  0  0
 20 16  2  0  0  0  0
 20 97  1  0  0  0  0
 21 22  2  0  0  0  0
 21 28  1  0  0  0  0
 22 23  1  0  0  0  0
 23 24  2  0  0  0  0
 23 94  1  0  0  0  0
 24 18  1  0  0  0  0
 24 95  1  0  0  0  0
 25 26  1  0  0  0  0
 25 29  1  0  0  0  0
 26 27  2  0  0  0  0
 26 92  1  0  0  0  0
 27 22  1  0  0  0  0
 27 93  1  0  0  0  0
 28 25  2  0  0  0  0
 28 91  1  0  0  0  0
 29 56  1  0  0  0  0
 29 58  2  0  0  0  0
 30 52  2  0  0  0  0
 30 54  1  0  0  0  0
 31 54  1  0  0  0  0
 31 33  1  0  0  0  0
 31 34  1  0  0  0  0
 32 52  1  0  0  0  0
 32 31  1  0  0  0  0
 32 35  1  0  0  0  0
 32 36  1  0  0  0  0
 33104  1  0  0  0  0
 33105  1  0  0  0  0
 33106  1  0  0  0  0
 34101  1  0  0  0  0
 34102  1  0  0  0  0
 34103  1  0  0  0  0
 35110  1  0  0  0  0
 35111  1  0  0  0  0
 35112  1  0  0  0  0
 36107  1  0  0  0  0
 36108  1  0  0  0  0
 36109  1  0  0  0  0
 37 56  1  0  0  0  0
 37 38  1  0  0  0  0
 37 39  1  0  0  0  0
 37 40  1  0  0  0  0
 38 58  1  0  0  0  0
 38 41  1  0  0  0  0
 38 42  1  0  0  0  0
 39 60  1  0  0  0  0
 39 61  1  0  0  0  0
 39 62  1  0  0  0  0
 40 63  1  0  0  0  0
 40 64  1  0  0  0  0
 40 65  1  0  0  0  0
 41 69  1  0  0  0  0
 41 70  1  0  0  0  0
 41 71  1  0  0  0  0
 42 66  1  0  0  0  0
 42 67  1  0  0  0  0
 42 68  1  0  0  0  0
 43 51  1  0  0  0  0
 44 45  1  0  0  0  0
 44 48  1  0  0  0  0
 44 49  1  0  0  0  0
 44 50  1  0  0  0  0
 45 46  1  0  0  0  0
 45 72  1  0  0  0  0
 45 73  1  0  0  0  0
 46 47  1  0  0  0  0
 46 74  1  0  0  0  0
 46 75  1  0  0  0  0
 47 51  1  0  0  0  0
 48 81  1  0  0  0  0
 48 82  1  0  0  0  0
 48 83  1  0  0  0  0
 49 84  1  0  0  0  0
 49 85  1  0  0  0  0
 49 86  1  0  0  0  0
 50 78  1  0  0  0  0
 50 79  1  0  0  0  0
 50 80  1  0  0  0  0
 51 76  1  0  0  0  0
 51 77  1  0  0  0  0
 52 53  2  0  0  0  0
 54 55  1  0  0  0  0
 56 57  1  0  0  0  0
 58 59  2  0  0  0  0
113114  2  0  0  0  0
113212  1  0  0  0  0
114115  1  0  0  0  0
114211  1  0  0  0  0
115116  2  0  0  0  0
115142  1  0  0  0  0
116117  1  0  0  0  0
116210  1  0  0  0  0
117118  2  0  0  0  0
117119  1  0  0  0  0
118113  1  0  0  0  0
119120  2  0  0  0  0
119123  1  0  0  0  0
120121  1  0  0  0  0
121122  2  0  0  0  0
121201  1  0  0  0  0
122118  1  0  0  0  0
122202  1  0  0  0  0
123124  2  0  0  0  0
123127  1  0  0  0  0
124155  1  0  0  0  0
124125  1  0  0  0  0
125126  2  0  0  0  0
125199  1  0  0  0  0
126120  1  0  0  0  0
126200  1  0  0  0  0
127128  1  0  0  0  0
127129  2  0  0  0  0
128155  1  0  0  0  0
129130  1  0  0  0  0
129133  1  0  0  0  0
130131  2  0  0  0  0
131132  1  0  0  0  0
131208  1  0  0  0  0
132128  2  0  0  0  0
132209  1  0  0  0  0
133134  2  0  0  0  0
133140  1  0  0  0  0
134135  1  0  0  0  0
135136  2  0  0  0  0
135206  1  0  0  0  0
136130  1  0  0  0  0
136207  1  0  0  0  0
137138  1  0  0  0  0
137141  1  0  0  0  0
138139  2  0  0  0  0
138204  1  0  0  0  0
139134  1  0  0  0  0
139205  1  0  0  0  0
140137  2  0  0  0  0
140203  1  0  0  0  0
141168  1  0  0  0  0
141170  2  0  0  0  0
142164  2  0  0  0  0
142166  1  0  0  0  0
143166  1  0  0  0  0
143145  1  0  0  0  0
143146  1  0  0  0  0
144164  1  0  0  0  0
144143  1  0  0  0  0
144147  1  0  0  0  0
144148  1  0  0  0  0
145216  1  0  0  0  0
145217  1  0  0  0  0
145218  1  0  0  0  0
146213  1  0  0  0  0
146214  1  0  0  0  0
146215  1  0  0  0  0
147222  1  0  0  0  0
147223  1  0  0  0  0
147224  1  0  0  0  0
148219  1  0  0  0  0
148220  1  0  0  0  0
148221  1  0  0  0  0
149168  1  0  0  0  0
149150  1  0  0  0  0
149151  1  0  0  0  0
149152  1  0  0  0  0
150170  1  0  0  0  0
150153  1  0  0  0  0
150154  1  0  0  0  0
151172  1  0  0  0  0
151173  1  0  0  0  0
151174  1  0  0  0  0
152175  1  0  0  0  0
152176  1  0  0  0  0
152177  1  0  0  0  0
153181  1  0  0  0  0
153182  1  0  0  0  0
153183  1  0  0  0  0
154178  1  0  0  0  0
154179  1  0  0  0  0
154180  1  0  0  0  0
155163  1  0  0  0  0
156157  1  0  0  0  0
156160  1  0  0  0  0
156161  1  0  0  0  0
156162  1  0  0  0  0
157158  1  0  0  0  0
157184  1  0  0  0  0
157185  1  0  0  0  0
158159  1  0  0  0  0
158186  1  0  0  0  0
158187  1  0  0  0  0
159163  1  0  0  0  0
160193  1  0  0  0  0
160194  1  0  0  0  0
160195  1  0  0  0  0
161196  1  0  0  0  0
161197  1  0  0  0  0
161198  1  0  0  0  0
162190  1  0  0  0  0
162191  1  0  0  0  0
162192  1  0  0  0  0
163188  1  0  0  0  0
163189  1  0  0  0  0
164165  2  0  0  0  0
166167  1  0  0  0  0
168169  1  0  0  0  0
170171  2  0  0  0  0
M  END
