 energy: -306.049846186273 gnorm: 961.435629661782 xtb: 6.6.1 (8d0f1dd)
          11142411063D

224240  0     0  0            999 V2000
   -3.7838    0.9939   -1.3913 C   0  0  0  0  0  0  0  0  0  0  0  0
   -3.6059   -0.3705   -1.2515 C   0  0  0  0  0  0  0  0  0  0  0  0
   -2.4686   -0.9036   -0.6478 C   0  0  0  0  0  0  0  0  0  0  0  0
   -1.4571    0.0458   -0.2664 C   0  0  0  0  0  0  0  0  0  0  0  0
   -1.6313    1.4710   -0.4124 C   0  0  0  0  0  0  0  0  0  0  0  0
   -2.8448    1.9335   -0.9130 C   0  0  0  0  0  0  0  0  0  0  0  0
   -0.6439    2.4753   -0.1023 C   0  0  0  0  0  0  0  0  0  0  0  0
   -1.0179    3.8222    0.1259 C   0  0  0  0  0  0  0  0  0  0  0  0
   -2.2220    4.2326   -0.3245 C   0  0  0  0  0  0  0  0  0  0  0  0
   -3.0557    3.3252   -0.9359 C   0  0  0  0  0  0  0  0  0  0  0  0
    0.7201    2.2719   -0.0724 C   0  0  0  0  0  0  0  0  0  0  0  0
    1.5740    3.1732    0.5248 C   0  0  0  0  0  0  0  0  0  0  0  0
    1.1494    4.4112    1.0049 C   0  0  0  0  0  0  0  0  0  0  0  0
   -0.1573    4.7655    0.7211 C   0  0  0  0  0  0  0  0  0  0  0  0
    1.4990    1.2724   -0.6197 C   0  0  0  0  0  0  0  0  0  0  0  0
    2.7514    1.4814   -0.0686 C   0  0  0  0  0  0  0  0  0  0  0  0
    1.2354    0.2117   -1.5477 C   0  0  0  0  0  0  0  0  0  0  0  0
    2.2011   -0.8367   -1.4900 C   0  0  0  0  0  0  0  0  0  0  0  0
    3.4347   -0.6679   -0.8095 C   0  0  0  0  0  0  0  0  0  0  0  0
    3.7533    0.5361   -0.1775 C   0  0  0  0  0  0  0  0  0  0  0  0
    0.1115    0.0898   -2.4948 C   0  0  0  0  0  0  0  0  0  0  0  0
   -0.1369   -1.1956   -3.0259 C   0  0  0  0  0  0  0  0  0  0  0  0
    0.7476   -2.2541   -2.7969 C   0  0  0  0  0  0  0  0  0  0  0  0
    1.9318   -2.0562   -2.1027 C   0  0  0  0  0  0  0  0  0  0  0  0
   -1.9483    0.9332   -3.7656 C   0  0  0  0  0  0  0  0  0  0  0  0
   -2.1654   -0.4208   -4.1181 C   0  0  0  0  0  0  0  0  0  0  0  0
   -1.2800   -1.4363   -3.7827 C   0  0  0  0  0  0  0  0  0  0  0  0
   -0.7745    1.1591   -2.9471 C   0  0  0  0  0  0  0  0  0  0  0  0
   -2.9478    2.0532   -4.2585 C   0  0  0  0  0  0  0  0  0  0  0  0
   -2.3954   -2.4166   -0.3524 C   0  0  0  0  0  0  0  0  0  0  0  0
   -1.4871   -4.5070    0.2357 C   0  0  0  0  0  0  0  0  0  0  0  0
   -3.0757   -4.5580    0.2021 C   0  0  0  0  0  0  0  0  0  0  0  0
   -0.9069   -5.0562    1.5350 C   0  0  0  0  0  0  0  0  0  0  0  0
   -0.7795   -5.2277   -0.9272 C   0  0  0  0  0  0  0  0  0  0  0  0
   -3.6257   -5.7194   -0.6486 C   0  0  0  0  0  0  0  0  0  0  0  0
   -3.7885   -4.7125    1.5930 C   0  0  0  0  0  0  0  0  0  0  0  0
   -3.8848    4.2211   -4.6898 C   0  0  0  0  0  0  0  0  0  0  0  0
   -4.5618    3.0850   -5.5708 C   0  0  0  0  0  0  0  0  0  0  0  0
   -4.9022    4.9863   -3.7824 C   0  0  0  0  0  0  0  0  0  0  0  0
   -3.1786    5.3512   -5.4708 C   0  0  0  0  0  0  0  0  0  0  0  0
   -6.1175    3.0182   -5.5249 C   0  0  0  0  0  0  0  0  0  0  0  0
   -4.1497    3.1719   -7.0562 C   0  0  0  0  0  0  0  0  0  0  0  0
    2.8178    2.6901    0.5398 N   0  0  0  0  0  0  0  0  0  0  0  0
    6.4764    4.3090    5.2939 Si  0  0  0  0  0  0  0  0  0  0  0  0
    4.8918    3.8414    4.4636 C   0  0  0  0  0  0  0  0  0  0  0  0
    4.9522    4.1081    2.9924 C   0  0  0  0  0  0  0  0  0  0  0  0
    3.7790    3.5752    2.4441 O   0  0  0  0  0  0  0  0  0  0  0  0
    6.4232    4.0218    7.0838 C   0  0  0  0  0  0  0  0  0  0  0  0
    6.6829    6.1455    5.1177 C   0  0  0  0  0  0  0  0  0  0  0  0
    7.7917    3.1341    4.6959 C   0  0  0  0  0  0  0  0  0  0  0  0
    3.9646    3.4009    1.0696 C   0  0  0  0  0  0  0  0  0  0  0  0
   -3.4107   -3.2355   -0.3166 N   0  0  0  0  0  0  0  0  0  0  0  0
   -4.5426   -2.9123   -0.5146 O   0  0  0  0  0  0  0  0  0  0  0  0
   -1.2257   -3.0927    0.0653 N   0  0  0  0  0  0  0  0  0  0  0  0
    0.0045   -2.5664    0.0613 O   0  0  0  0  0  0  0  0  0  0  0  0
   -2.8705    3.4501   -3.9653 N   0  0  0  0  0  0  0  0  0  0  0  0
   -1.8770    4.0286   -3.2795 O   0  0  0  0  0  0  0  0  0  0  0  0
   -3.9507    1.8584   -5.0660 N   0  0  0  0  0  0  0  0  0  0  0  0
   -4.2655    0.7958   -5.5055 O   0  0  0  0  0  0  0  0  0  0  0  0
   -5.6495    4.3701   -3.2947 H   0  0  0  0  0  0  0  0  0  0  0  0
   -5.5353    5.6633   -4.4014 H   0  0  0  0  0  0  0  0  0  0  0  0
   -4.4002    5.6150   -3.0190 H   0  0  0  0  0  0  0  0  0  0  0  0
   -2.3563    4.9686   -6.1004 H   0  0  0  0  0  0  0  0  0  0  0  0
   -2.7327    6.0773   -4.7539 H   0  0  0  0  0  0  0  0  0  0  0  0
   -3.9078    5.9101   -6.0974 H   0  0  0  0  0  0  0  0  0  0  0  0
   -3.0436    3.1132   -7.1435 H   0  0  0  0  0  0  0  0  0  0  0  0
   -4.5160    4.1072   -7.5239 H   0  0  0  0  0  0  0  0  0  0  0  0
   -4.5597    2.3112   -7.6261 H   0  0  0  0  0  0  0  0  0  0  0  0
   -6.5175    2.8110   -4.5123 H   0  0  0  0  0  0  0  0  0  0  0  0
   -6.4938    2.1974   -6.1743 H   0  0  0  0  0  0  0  0  0  0  0  0
   -6.5585    3.9654   -5.9083 H   0  0  0  0  0  0  0  0  0  0  0  0
    4.7522    2.7569    4.6215 H   0  0  0  0  0  0  0  0  0  0  0  0
    4.0399    4.4196    4.8620 H   0  0  0  0  0  0  0  0  0  0  0  0
    5.0019    5.2048    2.8097 H   0  0  0  0  0  0  0  0  0  0  0  0
    5.8622    3.5987    2.6036 H   0  0  0  0  0  0  0  0  0  0  0  0
    4.8863    2.8335    0.8358 H   0  0  0  0  0  0  0  0  0  0  0  0
    4.0158    4.3977    0.5684 H   0  0  0  0  0  0  0  0  0  0  0  0
    7.9466    3.2271    3.6056 H   0  0  0  0  0  0  0  0  0  0  0  0
    7.4413    2.1024    4.9270 H   0  0  0  0  0  0  0  0  0  0  0  0
    8.7332    3.3210    5.2470 H   0  0  0  0  0  0  0  0  0  0  0  0
    5.6577    4.7097    7.4656 H   0  0  0  0  0  0  0  0  0  0  0  0
    7.4026    4.2908    7.5224 H   0  0  0  0  0  0  0  0  0  0  0  0
    6.1962    2.9484    7.2515 H   0  0  0  0  0  0  0  0  0  0  0  0
    6.7665    6.4270    4.0519 H   0  0  0  0  0  0  0  0  0  0  0  0
    7.5691    6.4742    5.6934 H   0  0  0  0  0  0  0  0  0  0  0  0
    5.7732    6.6183    5.5524 H   0  0  0  0  0  0  0  0  0  0  0  0
    1.8154    5.1222    1.4768 H   0  0  0  0  0  0  0  0  0  0  0  0
   -0.4983    5.7694    0.9555 H   0  0  0  0  0  0  0  0  0  0  0  0
   -2.4715    5.2849   -0.2763 H   0  0  0  0  0  0  0  0  0  0  0  0
   -3.8460    3.8011   -1.3655 H   0  0  0  0  0  0  0  0  0  0  0  0
   -0.5547    2.1644   -2.6372 H   0  0  0  0  0  0  0  0  0  0  0  0
   -3.0036   -0.7698   -4.6822 H   0  0  0  0  0  0  0  0  0  0  0  0
   -1.5002   -2.4400   -4.1272 H   0  0  0  0  0  0  0  0  0  0  0  0
    0.5488   -3.2351   -3.2077 H   0  0  0  0  0  0  0  0  0  0  0  0
    2.6272   -2.8793   -2.0047 H   0  0  0  0  0  0  0  0  0  0  0  0
    4.1739   -1.4568   -0.8044 H   0  0  0  0  0  0  0  0  0  0  0  0
    4.7168    0.6795    0.2900 H   0  0  0  0  0  0  0  0  0  0  0  0
   -0.5565   -0.2987    0.2055 H   0  0  0  0  0  0  0  0  0  0  0  0
   -4.4080   -0.9839   -1.6193 H   0  0  0  0  0  0  0  0  0  0  0  0
   -4.7023    1.2379   -1.8609 H   0  0  0  0  0  0  0  0  0  0  0  0
   -1.1407   -4.8430   -1.9026 H   0  0  0  0  0  0  0  0  0  0  0  0
   -0.9420   -6.3244   -0.8692 H   0  0  0  0  0  0  0  0  0  0  0  0
    0.3167   -5.0448   -0.8763 H   0  0  0  0  0  0  0  0  0  0  0  0
   -1.3899   -4.5119    2.3316 H   0  0  0  0  0  0  0  0  0  0  0  0
    0.1924   -4.9033    1.5991 H   0  0  0  0  0  0  0  0  0  0  0  0
   -1.1391   -6.1320    1.6716 H   0  0  0  0  0  0  0  0  0  0  0  0
   -3.5421   -3.9428    2.3402 H   0  0  0  0  0  0  0  0  0  0  0  0
   -3.5592   -5.6975    2.0485 H   0  0  0  0  0  0  0  0  0  0  0  0
   -4.8929   -4.6571    1.4828 H   0  0  0  0  0  0  0  0  0  0  0  0
   -3.2799   -5.6749   -1.6959 H   0  0  0  0  0  0  0  0  0  0  0  0
   -4.7366   -5.7111   -0.6540 H   0  0  0  0  0  0  0  0  0  0  0  0
   -3.2996   -6.6839   -0.1941 H   0  0  0  0  0  0  0  0  0  0  0  0
   -5.0194    1.0639    4.9704 C   0  0  0  0  0  0  0  0  0  0  0  0
   -4.6262   -0.2764    5.0292 C   0  0  0  0  0  0  0  0  0  0  0  0
   -3.3048   -0.6477    5.3821 C   0  0  0  0  0  0  0  0  0  0  0  0
   -2.3952    0.4239    5.5668 C   0  0  0  0  0  0  0  0  0  0  0  0
   -2.7513    1.7951    5.4254 C   0  0  0  0  0  0  0  0  0  0  0  0
   -4.1075    2.0959    5.2173 C   0  0  0  0  0  0  0  0  0  0  0  0
   -1.8042    2.8729    5.5576 C   0  0  0  0  0  0  0  0  0  0  0  0
   -2.2967    4.1790    5.8009 C   0  0  0  0  0  0  0  0  0  0  0  0
   -3.6560    4.4454    5.6210 C   0  0  0  0  0  0  0  0  0  0  0  0
   -4.5400    3.4231    5.2800 C   0  0  0  0  0  0  0  0  0  0  0  0
   -0.3896    2.7380    5.5179 C   0  0  0  0  0  0  0  0  0  0  0  0
    0.4152    3.6692    6.1315 C   0  0  0  0  0  0  0  0  0  0  0  0
   -0.0778    4.9064    6.5288 C   0  0  0  0  0  0  0  0  0  0  0  0
   -1.4240    5.1946    6.2567 C   0  0  0  0  0  0  0  0  0  0  0  0
    0.4810    1.7856    4.9827 C   0  0  0  0  0  0  0  0  0  0  0  0
    1.7074    2.0354    5.5759 C   0  0  0  0  0  0  0  0  0  0  0  0
    0.2928    0.7141    4.0758 C   0  0  0  0  0  0  0  0  0  0  0  0
    1.3564   -0.2508    4.0664 C   0  0  0  0  0  0  0  0  0  0  0  0
    2.5825   -0.0185    4.7229 C   0  0  0  0  0  0  0  0  0  0  0  0
    2.7800    1.1477    5.4490 C   0  0  0  0  0  0  0  0  0  0  0  0
   -0.8893    0.5040    3.2532 C   0  0  0  0  0  0  0  0  0  0  0  0
   -1.0898   -0.8104    2.8340 C   0  0  0  0  0  0  0  0  0  0  0  0
   -0.0677   -1.7714    2.9264 C   0  0  0  0  0  0  0  0  0  0  0  0
    1.1719   -1.4710    3.4470 C   0  0  0  0  0  0  0  0  0  0  0  0
   -3.1544    1.1508    2.2099 C   0  0  0  0  0  0  0  0  0  0  0  0
   -3.3422   -0.2407    2.0621 C   0  0  0  0  0  0  0  0  0  0  0  0
   -2.3285   -1.1657    2.3368 C   0  0  0  0  0  0  0  0  0  0  0  0
   -1.8936    1.4948    2.8555 C   0  0  0  0  0  0  0  0  0  0  0  0
   -4.2576    2.1708    1.6708 C   0  0  0  0  0  0  0  0  0  0  0  0
   -2.8878   -2.1149    5.6256 C   0  0  0  0  0  0  0  0  0  0  0  0
   -1.5755   -3.9781    6.2654 C   0  0  0  0  0  0  0  0  0  0  0  0
   -3.0994   -4.3585    6.0631 C   0  0  0  0  0  0  0  0  0  0  0  0
   -0.9536   -4.4170    7.6039 C   0  0  0  0  0  0  0  0  0  0  0  0
   -0.6582   -4.5110    5.1570 C   0  0  0  0  0  0  0  0  0  0  0  0
   -3.3509   -5.6261    5.2080 C   0  0  0  0  0  0  0  0  0  0  0  0
   -3.8474   -4.5499    7.4036 C   0  0  0  0  0  0  0  0  0  0  0  0
   -5.3698    4.2503    1.2590 C   0  0  0  0  0  0  0  0  0  0  0  0
   -6.1682    3.0328    0.5730 C   0  0  0  0  0  0  0  0  0  0  0  0
   -6.0922    4.7769    2.5080 C   0  0  0  0  0  0  0  0  0  0  0  0
   -5.1247    5.5401    0.4072 C   0  0  0  0  0  0  0  0  0  0  0  0
   -7.6495    2.9595    1.0066 C   0  0  0  0  0  0  0  0  0  0  0  0
   -6.4495    3.0376   -0.9800 C   0  0  0  0  0  0  0  0  0  0  0  0
    1.6723    3.1960    6.2708 N   0  0  0  0  0  0  0  0  0  0  0  0
    5.6303    3.9632   11.1283 Si  0  0  0  0  0  0  0  0  0  0  0  0
    3.8669    3.5723   10.5230 C   0  0  0  0  0  0  0  0  0  0  0  0
    3.8050    3.8749    9.0470 C   0  0  0  0  0  0  0  0  0  0  0  0
    2.5558    3.6364    8.4285 O   0  0  0  0  0  0  0  0  0  0  0  0
    5.5968    3.7216   12.9583 C   0  0  0  0  0  0  0  0  0  0  0  0
    6.0878    5.7285   10.6796 C   0  0  0  0  0  0  0  0  0  0  0  0
    7.0091    2.8644   10.4671 C   0  0  0  0  0  0  0  0  0  0  0  0
    2.7622    3.8008    7.0291 C   0  0  0  0  0  0  0  0  0  0  0  0
   -3.6622   -3.1473    5.4850 N   0  0  0  0  0  0  0  0  0  0  0  0
   -4.7946   -3.0958    5.1123 O   0  0  0  0  0  0  0  0  0  0  0  0
   -1.6215   -2.5379    6.1376 N   0  0  0  0  0  0  0  0  0  0  0  0
   -0.5235   -1.7801    6.2487 O   0  0  0  0  0  0  0  0  0  0  0  0
   -4.1555    3.5936    1.7567 N   0  0  0  0  0  0  0  0  0  0  0  0
   -3.2080    4.2345    2.4549 O   0  0  0  0  0  0  0  0  0  0  0  0
   -5.3643    1.8787    1.0286 N   0  0  0  0  0  0  0  0  0  0  0  0
   -5.7093    0.7527    0.7828 O   0  0  0  0  0  0  0  0  0  0  0  0
   -6.3174    3.9369    3.1804 H   0  0  0  0  0  0  0  0  0  0  0  0
   -7.0397    5.2823    2.2258 H   0  0  0  0  0  0  0  0  0  0  0  0
   -5.4614    5.5066    3.0580 H   0  0  0  0  0  0  0  0  0  0  0  0
   -4.6389    5.4627   -0.5648 H   0  0  0  0  0  0  0  0  0  0  0  0
   -4.5064    6.2632    0.9905 H   0  0  0  0  0  0  0  0  0  0  0  0
   -6.0864    6.0379    0.1720 H   0  0  0  0  0  0  0  0  0  0  0  0
   -5.6192    3.0613   -1.6635 H   0  0  0  0  0  0  0  0  0  0  0  0
   -5.6266    3.0806   -1.6721 H   0  0  0  0  0  0  0  0  0  0  0  0
   -7.0294    2.1521   -1.3200 H   0  0  0  0  0  0  0  0  0  0  0  0
   -7.8090    2.8661    2.0844 H   0  0  0  0  0  0  0  0  0  0  0  0
   -8.1602    2.0821    0.5479 H   0  0  0  0  0  0  0  0  0  0  0  0
   -8.1680    3.8759    0.6249 H   0  0  0  0  0  0  0  0  0  0  0  0
    3.6348    2.5027   10.7168 H   0  0  0  0  0  0  0  0  0  0  0  0
    3.1420    4.2134   11.0640 H   0  0  0  0  0  0  0  0  0  0  0  0
    4.0566    4.9514    8.9186 H   0  0  0  0  0  0  0  0  0  0  0  0
    4.5537    3.1669    8.6477 H   0  0  0  0  0  0  0  0  0  0  0  0
    3.6869    3.2797    6.7272 H   0  0  0  0  0  0  0  0  0  0  0  0
    2.8620    4.8736    6.7562 H   0  0  0  0  0  0  0  0  0  0  0  0
    7.1340    2.9660    9.3788 H   0  0  0  0  0  0  0  0  0  0  0  0
    6.8128    1.8007   10.7038 H   0  0  0  0  0  0  0  0  0  0  0  0
    7.9666    3.1704   10.9405 H   0  0  0  0  0  0  0  0  0  0  0  0
    4.8114    4.3753   13.3852 H   0  0  0  0  0  0  0  0  0  0  0  0
    6.5902    3.9758   13.3782 H   0  0  0  0  0  0  0  0  0  0  0  0
    5.3586    2.6566   13.1573 H   0  0  0  0  0  0  0  0  0  0  0  0
    6.1716    5.8330    9.5772 H   0  0  0  0  0  0  0  0  0  0  0  0
    7.0698    5.9869   11.1251 H   0  0  0  0  0  0  0  0  0  0  0  0
    5.3112    6.4263   11.0503 H   0  0  0  0  0  0  0  0  0  0  0  0
    0.5739    5.6531    6.9599 H   0  0  0  0  0  0  0  0  0  0  0  0
   -1.8024    6.1829    6.4773 H   0  0  0  0  0  0  0  0  0  0  0  0
   -4.0379    5.4493    5.7478 H   0  0  0  0  0  0  0  0  0  0  0  0
   -5.5824    3.6606    5.1544 H   0  0  0  0  0  0  0  0  0  0  0  0
   -1.6705    2.5263    3.0537 H   0  0  0  0  0  0  0  0  0  0  0  0
   -4.2324   -0.6717    1.6535 H   0  0  0  0  0  0  0  0  0  0  0  0
   -2.4968   -2.1922    2.1307 H   0  0  0  0  0  0  0  0  0  0  0  0
   -0.1961   -2.7598    2.5563 H   0  0  0  0  0  0  0  0  0  0  0  0
    1.9519   -2.2288    3.4529 H   0  0  0  0  0  0  0  0  0  0  0  0
    3.3882   -0.7470    4.6828 H   0  0  0  0  0  0  0  0  0  0  0  0
    3.7308    1.2909    5.9416 H   0  0  0  0  0  0  0  0  0  0  0  0
   -1.3940    0.2180    5.8486 H   0  0  0  0  0  0  0  0  0  0  0  0
   -5.4123   -0.9821    4.8428 H   0  0  0  0  0  0  0  0  0  0  0  0
   -6.0561    1.2920    4.7541 H   0  0  0  0  0  0  0  0  0  0  0  0
   -1.0406   -4.1057    4.2311 H   0  0  0  0  0  0  0  0  0  0  0  0
   -0.6378   -5.6233    5.1237 H   0  0  0  0  0  0  0  0  0  0  0  0
    0.3862   -4.1486    5.2600 H   0  0  0  0  0  0  0  0  0  0  0  0
   -1.4814   -3.9681    8.4666 H   0  0  0  0  0  0  0  0  0  0  0  0
    0.1051   -4.0805    7.6590 H   0  0  0  0  0  0  0  0  0  0  0  0
   -0.9690   -5.5252    7.6876 H   0  0  0  0  0  0  0  0  0  0  0  0
   -3.7442   -3.6391    8.0331 H   0  0  0  0  0  0  0  0  0  0  0  0
   -3.4613   -5.4273    7.9612 H   0  0  0  0  0  0  0  0  0  0  0  0
   -4.9333   -4.7059    7.2245 H   0  0  0  0  0  0  0  0  0  0  0  0
   -2.8867   -5.5579    4.2093 H   0  0  0  0  0  0  0  0  0  0  0  0
   -4.4403   -5.7894    5.0561 H   0  0  0  0  0  0  0  0  0  0  0  0
   -2.9411   -6.5229    5.7226 H   0  0  0  0  0  0  0  0  0  0  0  0
  1  2  2  0  0  0  0
  1100  1  0  0  0  0
  2  3  1  0  0  0  0
  2 99  1  0  0  0  0
  3  4  2  0  0  0  0
  3 30  1  0  0  0  0
  4  5  1  0  0  0  0
  4 98  1  0  0  0  0
  5  6  2  0  0  0  0
  5  7  1  0  0  0  0
  6  1  1  0  0  0  0
  7  8  2  0  0  0  0
  7 11  1  0  0  0  0
  8  9  1  0  0  0  0
  9 10  2  0  0  0  0
  9 89  1  0  0  0  0
 10  6  1  0  0  0  0
 10 90  1  0  0  0  0
 11 12  2  0  0  0  0
 11 15  1  0  0  0  0
 12 43  1  0  0  0  0
 12 13  1  0  0  0  0
 13 14  2  0  0  0  0
 13 87  1  0  0  0  0
 14  8  1  0  0  0  0
 14 88  1  0  0  0  0
 15 16  1  0  0  0  0
 15 17  2  0  0  0  0
 16 43  1  0  0  0  0
 17 18  1  0  0  0  0
 17 21  1  0  0  0  0
 18 19  2  0  0  0  0
 19 20  1  0  0  0  0
 19 96  1  0  0  0  0
 20 16  2  0  0  0  0
 20 97  1  0  0  0  0
 21 22  2  0  0  0  0
 21 28  1  0  0  0  0
 22 23  1  0  0  0  0
 23 24  2  0  0  0  0
 23 94  1  0  0  0  0
 24 18  1  0  0  0  0
 24 95  1  0  0  0  0
 25 26  1  0  0  0  0
 25 29  1  0  0  0  0
 26 27  2  0  0  0  0
 26 92  1  0  0  0  0
 27 22  1  0  0  0  0
 27 93  1  0  0  0  0
 28 25  2  0  0  0  0
 28 91  1  0  0  0  0
 29 56  1  0  0  0  0
 29 58  2  0  0  0  0
 30 52  2  0  0  0  0
 30 54  1  0  0  0  0
 31 54  1  0  0  0  0
 31 33  1  0  0  0  0
 31 34  1  0  0  0  0
 32 52  1  0  0  0  0
 32 31  1  0  0  0  0
 32 35  1  0  0  0  0
 32 36  1  0  0  0  0
 33104  1  0  0  0  0
 33105  1  0  0  0  0
 33106  1  0  0  0  0
 34101  1  0  0  0  0
 34102  1  0  0  0  0
 34103  1  0  0  0  0
 35110  1  0  0  0  0
 35111  1  0  0  0  0
 35112  1  0  0  0  0
 36107  1  0  0  0  0
 36108  1  0  0  0  0
 36109  1  0  0  0  0
 37 56  1  0  0  0  0
 37 38  1  0  0  0  0
 37 39  1  0  0  0  0
 37 40  1  0  0  0  0
 38 58  1  0  0  0  0
 38 41  1  0  0  0  0
 38 42  1  0  0  0  0
 39 60  1  0  0  0  0
 39 61  1  0  0  0  0
 39 62  1  0  0  0  0
 40 63  1  0  0  0  0
 40 64  1  0  0  0  0
 40 65  1  0  0  0  0
 41 69  1  0  0  0  0
 41 70  1  0  0  0  0
 41 71  1  0  0  0  0
 42 66  1  0  0  0  0
 42 67  1  0  0  0  0
 42 68  1  0  0  0  0
 43 51  1  0  0  0  0
 44 45  1  0  0  0  0
 44 48  1  0  0  0  0
 44 49  1  0  0  0  0
 44 50  1  0  0  0  0
 45 46  1  0  0  0  0
 45 72  1  0  0  0  0
 45 73  1  0  0  0  0
 46 47  1  0  0  0  0
 46 74  1  0  0  0  0
 46 75  1  0  0  0  0
 47 51  1  0  0  0  0
 48 81  1  0  0  0  0
 48 82  1  0  0  0  0
 48 83  1  0  0  0  0
 49 84  1  0  0  0  0
 49 85  1  0  0  0  0
 49 86  1  0  0  0  0
 50 78  1  0  0  0  0
 50 79  1  0  0  0  0
 50 80  1  0  0  0  0
 51 76  1  0  0  0  0
 51 77  1  0  0  0  0
 52 53  2  0  0  0  0
 54 55  1  0  0  0  0
 56 57  1  0  0  0  0
 58 59  2  0  0  0  0
113114  2  0  0  0  0
113212  1  0  0  0  0
114115  1  0  0  0  0
114211  1  0  0  0  0
115116  2  0  0  0  0
115142  1  0  0  0  0
116117  1  0  0  0  0
116210  1  0  0  0  0
117118  2  0  0  0  0
117119  1  0  0  0  0
118113  1  0  0  0  0
119120  2  0  0  0  0
119123  1  0  0  0  0
120121  1  0  0  0  0
121122  2  0  0  0  0
121201  1  0  0  0  0
122118  1  0  0  0  0
122202  1  0  0  0  0
123124  2  0  0  0  0
123127  1  0  0  0  0
124155  1  0  0  0  0
124125  1  0  0  0  0
125126  2  0  0  0  0
125199  1  0  0  0  0
126120  1  0  0  0  0
126200  1  0  0  0  0
127128  1  0  0  0  0
127129  2  0  0  0  0
128155  1  0  0  0  0
129130  1  0  0  0  0
129133  1  0  0  0  0
130131  2  0  0  0  0
131132  1  0  0  0  0
131208  1  0  0  0  0
132128  2  0  0  0  0
132209  1  0  0  0  0
133134  2  0  0  0  0
133140  1  0  0  0  0
134135  1  0  0  0  0
135136  2  0  0  0  0
135206  1  0  0  0  0
136130  1  0  0  0  0
136207  1  0  0  0  0
137138  1  0  0  0  0
137141  1  0  0  0  0
138139  2  0  0  0  0
138204  1  0  0  0  0
139134  1  0  0  0  0
139205  1  0  0  0  0
140137  2  0  0  0  0
140203  1  0  0  0  0
141168  1  0  0  0  0
141170  2  0  0  0  0
142164  2  0  0  0  0
142166  1  0  0  0  0
143166  1  0  0  0  0
143145  1  0  0  0  0
143146  1  0  0  0  0
144164  1  0  0  0  0
144143  1  0  0  0  0
144147  1  0  0  0  0
144148  1  0  0  0  0
145216  1  0  0  0  0
145217  1  0  0  0  0
145218  1  0  0  0  0
146213  1  0  0  0  0
146214  1  0  0  0  0
146215  1  0  0  0  0
147222  1  0  0  0  0
147223  1  0  0  0  0
147224  1  0  0  0  0
148219  1  0  0  0  0
148220  1  0  0  0  0
148221  1  0  0  0  0
149168  1  0  0  0  0
149150  1  0  0  0  0
149151  1  0  0  0  0
149152  1  0  0  0  0
150170  1  0  0  0  0
150153  1  0  0  0  0
150154  1  0  0  0  0
151172  1  0  0  0  0
151173  1  0  0  0  0
151174  1  0  0  0  0
152175  1  0  0  0  0
152176  1  0  0  0  0
152177  1  0  0  0  0
153181  1  0  0  0  0
153182  1  0  0  0  0
153183  1  0  0  0  0
154178  1  0  0  0  0
154179  1  0  0  0  0
154180  1  0  0  0  0
155163  1  0  0  0  0
156157  1  0  0  0  0
156160  1  0  0  0  0
156161  1  0  0  0  0
156162  1  0  0  0  0
157158  1  0  0  0  0
157184  1  0  0  0  0
157185  1  0  0  0  0
158159  1  0  0  0  0
158186  1  0  0  0  0
158187  1  0  0  0  0
159163  1  0  0  0  0
160193  1  0  0  0  0
160194  1  0  0  0  0
160195  1  0  0  0  0
161196  1  0  0  0  0
161197  1  0  0  0  0
161198  1  0  0  0  0
162190  1  0  0  0  0
162191  1  0  0  0  0
162192  1  0  0  0  0
163188  1  0  0  0  0
163189  1  0  0  0  0
164165  2  0  0  0  0
166167  1  0  0  0  0
168169  1  0  0  0  0
170171  2  0  0  0  0
M  END
