 energy: -127.255372910945 gnorm: 0.000252102483 xtb: 6.7.1 (edcfbbe)
          03032513383D

 78 82  0     0  0            999 V2000
    0.8827    3.3512   -3.1749 C   0  0  0  0  0  0  0  0  0  0  0  0
    2.5364   -3.0367   -0.2735 C   0  0  0  0  0  0  0  0  0  0  0  0
   -3.6808    1.4751   -1.8844 C   0  0  0  0  0  0  0  0  0  0  0  0
   -2.7392    0.5496   -1.4903 C   0  0  0  0  0  0  0  0  0  0  0  0
   -1.3555    0.8142   -1.6666 C   0  0  0  0  0  0  0  0  0  0  0  0
   -0.9804    1.9134   -2.4749 C   0  0  0  0  0  0  0  0  0  0  0  0
   -1.9353    2.8197   -2.8897 C   0  0  0  0  0  0  0  0  0  0  0  0
   -3.2862    2.6423   -2.5476 C   0  0  0  0  0  0  0  0  0  0  0  0
   -0.3307   -0.0210   -1.1211 C   0  0  0  0  0  0  0  0  0  0  0  0
    0.8949   -0.0824   -1.8393 C   0  0  0  0  0  0  0  0  0  0  0  0
    1.2062    0.9375   -2.7658 C   0  0  0  0  0  0  0  0  0  0  0  0
    0.3664    2.0545   -2.8105 N   0  0  0  0  0  0  0  0  0  0  0  0
   -0.4730   -0.8442    0.0243 C   0  0  0  0  0  0  0  0  0  0  0  0
    0.3920   -1.9621    0.1906 C   0  0  0  0  0  0  0  0  0  0  0  0
    1.5113   -2.0880   -0.6391 N   0  0  0  0  0  0  0  0  0  0  0  0
    1.7886   -1.1598   -1.6435 C   0  0  0  0  0  0  0  0  0  0  0  0
    2.8979   -1.2667   -2.4623 C   0  0  0  0  0  0  0  0  0  0  0  0
    3.1670   -0.2934   -3.4366 C   0  0  0  0  0  0  0  0  0  0  0  0
    2.3186    0.8138   -3.5715 C   0  0  0  0  0  0  0  0  0  0  0  0
   -1.4089   -0.5823    1.0594 C   0  0  0  0  0  0  0  0  0  0  0  0
   -1.6546   -1.5094    2.0443 C   0  0  0  0  0  0  0  0  0  0  0  0
   -0.9598   -2.7211    2.0629 C   0  0  0  0  0  0  0  0  0  0  0  0
    0.0968   -2.9098    1.1469 C   0  0  0  0  0  0  0  0  0  0  0  0
   -2.0925    0.6299    1.1338 O   0  0  0  0  0  0  0  0  0  0  0  0
   -3.0550   -0.6844   -0.9880 O   0  0  0  0  0  0  0  0  0  0  0  0
   -4.2354    3.6615   -2.9420 C   0  0  0  0  0  0  0  0  0  0  0  0
   -1.3031   -3.7145    3.0517 C   0  0  0  0  0  0  0  0  0  0  0  0
    4.3142   -0.3917   -4.3126 C   0  0  0  0  0  0  0  0  0  0  0  0
    4.6422    0.4200   -5.1616 O   0  0  0  0  0  0  0  0  0  0  0  0
    5.0555   -1.5308   -4.1099 O   0  0  0  0  0  0  0  0  0  0  0  0
    6.1757   -1.6689   -4.9533 C   0  0  0  0  0  0  0  0  0  0  0  0
   -3.9679    4.6950   -3.5311 O   0  0  0  0  0  0  0  0  0  0  0  0
   -5.5239    3.3555   -2.5819 O   0  0  0  0  0  0  0  0  0  0  0  0
   -6.5217    4.2906   -2.9269 C   0  0  0  0  0  0  0  0  0  0  0  0
   -2.1869   -3.6227    3.8871 O   0  0  0  0  0  0  0  0  0  0  0  0
   -0.5079   -4.8375    2.9746 O   0  0  0  0  0  0  0  0  0  0  0  0
   -0.7805   -5.8725    3.8916 C   0  0  0  0  0  0  0  0  0  0  0  0
   -4.7307    1.3155   -1.7048 H   0  0  0  0  0  0  0  0  0  0  0  0
   -1.6885    3.6940   -3.4677 H   0  0  0  0  0  0  0  0  0  0  0  0
   -2.3955   -1.3084    2.8027 H   0  0  0  0  0  0  0  0  0  0  0  0
    0.6370   -3.8372    1.2172 H   0  0  0  0  0  0  0  0  0  0  0  0
    3.5778   -2.0980   -2.4045 H   0  0  0  0  0  0  0  0  0  0  0  0
    2.5671    1.5386   -4.3301 H   0  0  0  0  0  0  0  0  0  0  0  0
    2.3972   -4.3691   -1.0180 C   0  0  0  0  0  0  0  0  0  0  0  0
    3.4889   -5.3497   -0.6108 C   0  0  0  0  0  0  0  0  0  0  0  0
    0.7879    4.3372   -2.0026 C   0  0  0  0  0  0  0  0  0  0  0  0
    1.3244    5.7085   -2.3902 C   0  0  0  0  0  0  0  0  0  0  0  0
   -1.2696    1.7483    1.3528 C   0  0  0  0  0  0  0  0  0  0  0  0
   -4.3410   -0.8819   -0.4692 C   0  0  0  0  0  0  0  0  0  0  0  0
   -7.2658    3.7962   -3.5556 H   0  0  0  0  0  0  0  0  0  0  0  0
   -6.0695    5.1252   -3.4699 H   0  0  0  0  0  0  0  0  0  0  0  0
   -6.9972    4.6561   -2.0137 H   0  0  0  0  0  0  0  0  0  0  0  0
    0.1131   -6.0587    4.4925 H   0  0  0  0  0  0  0  0  0  0  0  0
   -1.0456   -6.7770    3.3386 H   0  0  0  0  0  0  0  0  0  0  0  0
   -1.6099   -5.5770    4.5404 H   0  0  0  0  0  0  0  0  0  0  0  0
    6.6642   -2.5988   -4.6673 H   0  0  0  0  0  0  0  0  0  0  0  0
    6.8598   -0.8246   -4.8283 H   0  0  0  0  0  0  0  0  0  0  0  0
    5.8669   -1.7085   -6.0020 H   0  0  0  0  0  0  0  0  0  0  0  0
    2.4881   -3.2102    0.8055 H   0  0  0  0  0  0  0  0  0  0  0  0
    3.5176   -2.5993   -0.4821 H   0  0  0  0  0  0  0  0  0  0  0  0
    2.4467   -4.1820   -2.0922 H   0  0  0  0  0  0  0  0  0  0  0  0
    1.4157   -4.7944   -0.8021 H   0  0  0  0  0  0  0  0  0  0  0  0
    4.4721   -4.9400   -0.8349 H   0  0  0  0  0  0  0  0  0  0  0  0
    3.3794   -6.2908   -1.1453 H   0  0  0  0  0  0  0  0  0  0  0  0
    3.4385   -5.5533    0.4572 H   0  0  0  0  0  0  0  0  0  0  0  0
   -1.9170    2.6226    1.2892 H   0  0  0  0  0  0  0  0  0  0  0  0
   -0.4796    1.8345    0.6004 H   0  0  0  0  0  0  0  0  0  0  0  0
   -0.8078    1.7058    2.3488 H   0  0  0  0  0  0  0  0  0  0  0  0
   -4.3116   -1.8505    0.0295 H   0  0  0  0  0  0  0  0  0  0  0  0
   -5.1015   -0.9035   -1.2605 H   0  0  0  0  0  0  0  0  0  0  0  0
   -4.5947   -0.1084    0.2615 H   0  0  0  0  0  0  0  0  0  0  0  0
    1.2709    6.3933   -1.5466 H   0  0  0  0  0  0  0  0  0  0  0  0
    0.7397    6.1256   -3.2072 H   0  0  0  0  0  0  0  0  0  0  0  0
    2.3620    5.6377   -2.7118 H   0  0  0  0  0  0  0  0  0  0  0  0
    1.3612    3.9358   -1.1636 H   0  0  0  0  0  0  0  0  0  0  0  0
   -0.2518    4.4244   -1.6850 H   0  0  0  0  0  0  0  0  0  0  0  0
    0.3515    3.7548   -4.0450 H   0  0  0  0  0  0  0  0  0  0  0  0
    1.9322    3.2417   -3.4467 H   0  0  0  0  0  0  0  0  0  0  0  0
  1 46  1  0  0  0  0
  1 77  1  0  0  0  0
  1 78  1  0  0  0  0
  2 44  1  0  0  0  0
  2 59  1  0  0  0  0
  2 60  1  0  0  0  0
  3  4  2  0  0  0  0
  3 38  1  0  0  0  0
  4  5  1  0  0  0  0
  4 25  1  0  0  0  0
  5  6  2  0  0  0  0
  5  9  1  0  0  0  0
  6  7  1  0  0  0  0
  7  8  2  0  0  0  0
  7 39  1  0  0  0  0
  8  3  1  0  0  0  0
  8 26  1  0  0  0  0
  9 10  1  0  0  0  0
 10 11  2  0  0  0  0
 11 12  1  0  0  0  0
 12  1  1  0  0  0  0
 12  6  1  0  0  0  0
 13 14  2  0  0  0  0
 13 20  1  0  0  0  0
 13  9  1  0  0  0  0
 14 15  1  0  0  0  0
 15  2  1  0  0  0  0
 15 16  1  0  0  0  0
 16 10  1  0  0  0  0
 16 17  2  0  0  0  0
 17 18  1  0  0  0  0
 17 42  1  0  0  0  0
 18 19  2  0  0  0  0
 18 28  1  0  0  0  0
 19 11  1  0  0  0  0
 19 43  1  0  0  0  0
 20 21  2  0  0  0  0
 21 22  1  0  0  0  0
 21 40  1  0  0  0  0
 22 23  2  0  0  0  0
 22 27  1  0  0  0  0
 23 14  1  0  0  0  0
 23 41  1  0  0  0  0
 24 48  1  0  0  0  0
 24 20  1  0  0  0  0
 25 49  1  0  0  0  0
 26 32  2  0  0  0  0
 26 33  1  0  0  0  0
 27 35  2  0  0  0  0
 27 36  1  0  0  0  0
 28 29  2  0  0  0  0
 28 30  1  0  0  0  0
 30 31  1  0  0  0  0
 31 56  1  0  0  0  0
 31 57  1  0  0  0  0
 31 58  1  0  0  0  0
 33 34  1  0  0  0  0
 34 50  1  0  0  0  0
 34 51  1  0  0  0  0
 34 52  1  0  0  0  0
 36 37  1  0  0  0  0
 37 53  1  0  0  0  0
 37 54  1  0  0  0  0
 37 55  1  0  0  0  0
 44 45  1  0  0  0  0
 44 61  1  0  0  0  0
 44 62  1  0  0  0  0
 45 63  1  0  0  0  0
 45 64  1  0  0  0  0
 45 65  1  0  0  0  0
 46 47  1  0  0  0  0
 46 75  1  0  0  0  0
 46 76  1  0  0  0  0
 47 72  1  0  0  0  0
 47 73  1  0  0  0  0
 47 74  1  0  0  0  0
 48 66  1  0  0  0  0
 48 67  1  0  0  0  0
 48 68  1  0  0  0  0
 49 69  1  0  0  0  0
 49 70  1  0  0  0  0
 49 71  1  0  0  0  0
M  CHG  1   1  -1
M  END
