 energy: -126.644642950347 gnorm: 0.000276094306 xtb: 6.7.1 (edcfbbe)
          03032513393D

 78 82  0     0  0            999 V2000
    0.9415    3.3487   -3.3370 C   0  0  0  0  0  0  0  0  0  0  0  0
    2.1256   -3.4882   -0.9534 C   0  0  0  0  0  0  0  0  0  0  0  0
   -3.5252    1.3936   -1.9186 C   0  0  0  0  0  0  0  0  0  0  0  0
   -2.5694    0.5083   -1.4621 C   0  0  0  0  0  0  0  0  0  0  0  0
   -1.1869    0.7897   -1.6751 C   0  0  0  0  0  0  0  0  0  0  0  0
   -0.8152    1.8766   -2.5090 C   0  0  0  0  0  0  0  0  0  0  0  0
   -1.8082    2.7639   -2.9360 C   0  0  0  0  0  0  0  0  0  0  0  0
   -3.1320    2.5326   -2.6230 C   0  0  0  0  0  0  0  0  0  0  0  0
   -0.1478   -0.0182   -1.1328 C   0  0  0  0  0  0  0  0  0  0  0  0
    1.0679   -0.0487   -1.8380 C   0  0  0  0  0  0  0  0  0  0  0  0
    1.3822    1.0030   -2.7474 C   0  0  0  0  0  0  0  0  0  0  0  0
    0.4968    2.0418   -2.8771 N   0  0  0  0  0  0  0  0  0  0  0  0
   -0.2195   -0.7934    0.0607 C   0  0  0  0  0  0  0  0  0  0  0  0
    0.6430   -1.9137    0.1775 C   0  0  0  0  0  0  0  0  0  0  0  0
    1.5932   -2.1446   -0.7881 N   0  0  0  0  0  0  0  0  0  0  0  0
    1.9722   -1.1311   -1.6333 C   0  0  0  0  0  0  0  0  0  0  0  0
    3.1831   -1.1308   -2.3172 C   0  0  0  0  0  0  0  0  0  0  0  0
    3.4711   -0.1070   -3.2085 C   0  0  0  0  0  0  0  0  0  0  0  0
    2.5889    0.9392   -3.4352 C   0  0  0  0  0  0  0  0  0  0  0  0
   -1.0652   -0.4427    1.1538 C   0  0  0  0  0  0  0  0  0  0  0  0
   -1.1622   -1.2972    2.2327 C   0  0  0  0  0  0  0  0  0  0  0  0
   -0.3987   -2.4648    2.2740 C   0  0  0  0  0  0  0  0  0  0  0  0
    0.5103   -2.7649    1.2803 C   0  0  0  0  0  0  0  0  0  0  0  0
   -1.6701    0.7557    1.0805 O   0  0  0  0  0  0  0  0  0  0  0  0
   -2.8487   -0.6686   -0.8728 O   0  0  0  0  0  0  0  0  0  0  0  0
   -4.1303    3.5299   -3.1166 C   0  0  0  0  0  0  0  0  0  0  0  0
   -0.5771   -3.3488    3.4661 C   0  0  0  0  0  0  0  0  0  0  0  0
    4.7580   -0.0789   -3.9719 C   0  0  0  0  0  0  0  0  0  0  0  0
    5.0604    0.8187   -4.7148 O   0  0  0  0  0  0  0  0  0  0  0  0
    5.5151   -1.1480   -3.7357 O   0  0  0  0  0  0  0  0  0  0  0  0
    6.7629   -1.1924   -4.4223 C   0  0  0  0  0  0  0  0  0  0  0  0
   -3.8209    4.5253   -3.7201 O   0  0  0  0  0  0  0  0  0  0  0  0
   -5.3824    3.1938   -2.8137 O   0  0  0  0  0  0  0  0  0  0  0  0
   -6.3938    4.0967   -3.2505 C   0  0  0  0  0  0  0  0  0  0  0  0
   -1.3734   -3.1227    4.3401 O   0  0  0  0  0  0  0  0  0  0  0  0
    0.2373   -4.4035    3.4456 O   0  0  0  0  0  0  0  0  0  0  0  0
    0.1307   -5.2988    4.5486 C   0  0  0  0  0  0  0  0  0  0  0  0
   -4.5757    1.2262   -1.7564 H   0  0  0  0  0  0  0  0  0  0  0  0
   -1.5940    3.6254   -3.5448 H   0  0  0  0  0  0  0  0  0  0  0  0
   -1.8077   -1.0971    3.0718 H   0  0  0  0  0  0  0  0  0  0  0  0
    1.1299   -3.6347    1.4021 H   0  0  0  0  0  0  0  0  0  0  0  0
    3.9309   -1.8875   -2.1569 H   0  0  0  0  0  0  0  0  0  0  0  0
    2.8800    1.6641   -4.1771 H   0  0  0  0  0  0  0  0  0  0  0  0
    1.0284   -4.4671   -1.3876 C   0  0  0  0  0  0  0  0  0  0  0  0
    1.6000   -5.8677   -1.5648 C   0  0  0  0  0  0  0  0  0  0  0  0
    0.8729    4.3839   -2.2082 C   0  0  0  0  0  0  0  0  0  0  0  0
    1.3182    5.7505   -2.7116 C   0  0  0  0  0  0  0  0  0  0  0  0
   -2.4559    1.1924    2.1723 C   0  0  0  0  0  0  0  0  0  0  0  0
   -4.1997   -1.0374   -0.6811 C   0  0  0  0  0  0  0  0  0  0  0  0
   -7.3422    3.6572   -2.9543 H   0  0  0  0  0  0  0  0  0  0  0  0
   -6.3472    4.2204   -4.3336 H   0  0  0  0  0  0  0  0  0  0  0  0
   -6.2574    5.0718   -2.7797 H   0  0  0  0  0  0  0  0  0  0  0  0
    0.9679   -5.9864    4.4649 H   0  0  0  0  0  0  0  0  0  0  0  0
   -0.8154   -5.8409    4.5020 H   0  0  0  0  0  0  0  0  0  0  0  0
    0.1746   -4.7473    5.4890 H   0  0  0  0  0  0  0  0  0  0  0  0
    7.2344   -2.1280   -4.1348 H   0  0  0  0  0  0  0  0  0  0  0  0
    7.3833   -0.3431   -4.1318 H   0  0  0  0  0  0  0  0  0  0  0  0
    6.6013   -1.1569   -5.5009 H   0  0  0  0  0  0  0  0  0  0  0  0
    2.5968   -3.8250   -0.0270 H   0  0  0  0  0  0  0  0  0  0  0  0
    2.8877   -3.4740   -1.7287 H   0  0  0  0  0  0  0  0  0  0  0  0
    0.6017   -4.1205   -2.3314 H   0  0  0  0  0  0  0  0  0  0  0  0
    0.2275   -4.4886   -0.6474 H   0  0  0  0  0  0  0  0  0  0  0  0
    2.3869   -5.8725   -2.3148 H   0  0  0  0  0  0  0  0  0  0  0  0
    0.8201   -6.5523   -1.8851 H   0  0  0  0  0  0  0  0  0  0  0  0
    2.0138   -6.2354   -0.6291 H   0  0  0  0  0  0  0  0  0  0  0  0
   -2.8195    2.1791    1.8908 H   0  0  0  0  0  0  0  0  0  0  0  0
   -1.8599    1.2703    3.0849 H   0  0  0  0  0  0  0  0  0  0  0  0
   -3.3040    0.5256    2.3469 H   0  0  0  0  0  0  0  0  0  0  0  0
   -4.1680   -2.0107   -0.1947 H   0  0  0  0  0  0  0  0  0  0  0  0
   -4.7277   -1.1239   -1.6342 H   0  0  0  0  0  0  0  0  0  0  0  0
   -4.7214   -0.3250   -0.0369 H   0  0  0  0  0  0  0  0  0  0  0  0
    1.2859    6.4754   -1.9036 H   0  0  0  0  0  0  0  0  0  0  0  0
    0.6640    6.0976   -3.5073 H   0  0  0  0  0  0  0  0  0  0  0  0
    2.3352    5.7096   -3.0936 H   0  0  0  0  0  0  0  0  0  0  0  0
    1.5231    4.0598   -1.3925 H   0  0  0  0  0  0  0  0  0  0  0  0
   -0.1443    4.4506   -1.8199 H   0  0  0  0  0  0  0  0  0  0  0  0
    0.3384    3.6705   -4.1885 H   0  0  0  0  0  0  0  0  0  0  0  0
    1.9738    3.2796   -3.6693 H   0  0  0  0  0  0  0  0  0  0  0  0
  1 46  1  0  0  0  0
  1 77  1  0  0  0  0
  1 78  1  0  0  0  0
  2 44  1  0  0  0  0
  2 59  1  0  0  0  0
  2 60  1  0  0  0  0
  3  4  2  0  0  0  0
  3 38  1  0  0  0  0
  4  5  1  0  0  0  0
  4 25  1  0  0  0  0
  5  6  2  0  0  0  0
  5  9  1  0  0  0  0
  6  7  1  0  0  0  0
  7  8  2  0  0  0  0
  7 39  1  0  0  0  0
  8  3  1  0  0  0  0
  8 26  1  0  0  0  0
  9 10  1  0  0  0  0
 10 11  2  0  0  0  0
 11 12  1  0  0  0  0
 12  1  1  0  0  0  0
 12  6  1  0  0  0  0
 13 14  2  0  0  0  0
 13 20  1  0  0  0  0
 13  9  1  0  0  0  0
 14 15  1  0  0  0  0
 15  2  1  0  0  0  0
 15 16  1  0  0  0  0
 16 10  1  0  0  0  0
 16 17  2  0  0  0  0
 17 18  1  0  0  0  0
 17 42  1  0  0  0  0
 18 19  2  0  0  0  0
 18 28  1  0  0  0  0
 19 11  1  0  0  0  0
 19 43  1  0  0  0  0
 20 21  2  0  0  0  0
 21 22  1  0  0  0  0
 21 40  1  0  0  0  0
 22 23  2  0  0  0  0
 22 27  1  0  0  0  0
 23 14  1  0  0  0  0
 23 41  1  0  0  0  0
 24 48  1  0  0  0  0
 24 20  1  0  0  0  0
 25 49  1  0  0  0  0
 26 32  2  0  0  0  0
 26 33  1  0  0  0  0
 27 35  2  0  0  0  0
 27 36  1  0  0  0  0
 28 29  2  0  0  0  0
 28 30  1  0  0  0  0
 30 31  1  0  0  0  0
 31 56  1  0  0  0  0
 31 57  1  0  0  0  0
 31 58  1  0  0  0  0
 33 34  1  0  0  0  0
 34 50  1  0  0  0  0
 34 51  1  0  0  0  0
 34 52  1  0  0  0  0
 36 37  1  0  0  0  0
 37 53  1  0  0  0  0
 37 54  1  0  0  0  0
 37 55  1  0  0  0  0
 44 45  1  0  0  0  0
 44 61  1  0  0  0  0
 44 62  1  0  0  0  0
 45 63  1  0  0  0  0
 45 64  1  0  0  0  0
 45 65  1  0  0  0  0
 46 47  1  0  0  0  0
 46 75  1  0  0  0  0
 46 76  1  0  0  0  0
 47 72  1  0  0  0  0
 47 73  1  0  0  0  0
 47 74  1  0  0  0  0
 48 66  1  0  0  0  0
 48 67  1  0  0  0  0
 48 68  1  0  0  0  0
 49 69  1  0  0  0  0
 49 70  1  0  0  0  0
 49 71  1  0  0  0  0
M  CHG  1   1   1
M  END
