 energy: -29.185090821309 gnorm: 0.000468313254 xtb: 6.7.1 (edcfbbe)
          03032513393D

156164  0     0  0            999 V2000
    0.8972    2.9699   -3.3921 C   0  0  0  0  0  0  0  0  0  0  0  0
    2.3017   -2.8223    1.0230 C   0  0  0  0  0  0  0  0  0  0  0  0
   -3.6497    1.6105   -1.7225 C   0  0  0  0  0  0  0  0  0  0  0  0
   -2.7901    0.6545   -1.1967 C   0  0  0  0  0  0  0  0  0  0  0  0
   -1.3847    0.9542   -1.1534 C   0  0  0  0  0  0  0  0  0  0  0  0
   -0.8967    2.0236   -1.9546 C   0  0  0  0  0  0  0  0  0  0  0  0
   -1.8091    2.9584   -2.4404 C   0  0  0  0  0  0  0  0  0  0  0  0
   -3.1688    2.7766   -2.2962 C   0  0  0  0  0  0  0  0  0  0  0  0
   -0.4394    0.1420   -0.4343 C   0  0  0  0  0  0  0  0  0  0  0  0
    0.8905    0.0944   -0.9230 C   0  0  0  0  0  0  0  0  0  0  0  0
    1.3304    1.0437   -1.8860 C   0  0  0  0  0  0  0  0  0  0  0  0
    0.4532    2.0396   -2.3332 N   0  0  0  0  0  0  0  0  0  0  0  0
   -0.7611   -0.6118    0.7455 C   0  0  0  0  0  0  0  0  0  0  0  0
    0.1031   -1.6657    1.1477 C   0  0  0  0  0  0  0  0  0  0  0  0
    1.3529   -1.8083    0.5263 N   0  0  0  0  0  0  0  0  0  0  0  0
    1.7730   -0.9238   -0.4741 C   0  0  0  0  0  0  0  0  0  0  0  0
    3.0331   -1.0117   -1.0559 C   0  0  0  0  0  0  0  0  0  0  0  0
    3.4699   -0.0812   -1.9803 C   0  0  0  0  0  0  0  0  0  0  0  0
    2.6307    0.9455   -2.3657 C   0  0  0  0  0  0  0  0  0  0  0  0
   -1.8734   -0.2718    1.5869 C   0  0  0  0  0  0  0  0  0  0  0  0
   -2.2213   -1.1441    2.6090 C   0  0  0  0  0  0  0  0  0  0  0  0
   -1.4575   -2.2597    2.9023 C   0  0  0  0  0  0  0  0  0  0  0  0
   -0.2947   -2.4937    2.1975 C   0  0  0  0  0  0  0  0  0  0  0  0
   -2.5112    0.9546    1.4061 O   0  0  0  0  0  0  0  0  0  0  0  0
   -3.2161   -0.6026   -0.7753 O   0  0  0  0  0  0  0  0  0  0  0  0
   -4.0997    3.7956   -2.8249 C   0  0  0  0  0  0  0  0  0  0  0  0
   -1.8673   -3.1473    4.0149 C   0  0  0  0  0  0  0  0  0  0  0  0
    4.8244   -0.1689   -2.5691 C   0  0  0  0  0  0  0  0  0  0  0  0
    5.1597    0.6354   -3.4192 O   0  0  0  0  0  0  0  0  0  0  0  0
    5.6294   -1.1784   -2.1172 O   0  0  0  0  0  0  0  0  0  0  0  0
    6.8530   -1.1214   -2.7769 C   0  0  0  0  0  0  0  0  0  0  0  0
   -3.6557    4.8019   -3.3463 O   0  0  0  0  0  0  0  0  0  0  0  0
   -5.4341    3.5283   -2.6913 O   0  0  0  0  0  0  0  0  0  0  0  0
   -6.1726    4.5766   -3.2293 C   0  0  0  0  0  0  0  0  0  0  0  0
   -3.0162   -3.1120    4.4165 O   0  0  0  0  0  0  0  0  0  0  0  0
   -0.9043   -3.9642    4.5424 O   0  0  0  0  0  0  0  0  0  0  0  0
   -1.4299   -4.6252    5.6488 C   0  0  0  0  0  0  0  0  0  0  0  0
   -4.7121    1.4622   -1.7016 H   0  0  0  0  0  0  0  0  0  0  0  0
   -1.4773    3.8522   -2.9343 H   0  0  0  0  0  0  0  0  0  0  0  0
   -3.0737   -0.9504    3.2306 H   0  0  0  0  0  0  0  0  0  0  0  0
    0.2892   -3.3480    2.4795 H   0  0  0  0  0  0  0  0  0  0  0  0
    3.7030   -1.8092   -0.8011 H   0  0  0  0  0  0  0  0  0  0  0  0
    3.0235    1.6620   -3.0611 H   0  0  0  0  0  0  0  0  0  0  0  0
    2.2117   -4.1256    0.2477 C   0  0  0  0  0  0  0  0  0  0  0  0
    3.2213   -5.1578    0.7190 C   0  0  0  0  0  0  0  0  0  0  0  0
    1.5760    4.2076   -2.8272 C   0  0  0  0  0  0  0  0  0  0  0  0
    2.1192    5.1260   -3.9083 C   0  0  0  0  0  0  0  0  0  0  0  0
   -3.7558    1.0807    2.0482 C   0  0  0  0  0  0  0  0  0  0  0  0
   -4.5681   -0.8952   -1.0312 C   0  0  0  0  0  0  0  0  0  0  0  0
   -7.2372    4.3574   -3.1257 H   0  0  0  0  0  0  0  0  0  0  0  0
   -5.9124    4.6878   -4.2846 H   0  0  0  0  0  0  0  0  0  0  0  0
   -5.9237    5.4955   -2.6930 H   0  0  0  0  0  0  0  0  0  0  0  0
   -0.6838   -5.3063    6.0623 H   0  0  0  0  0  0  0  0  0  0  0  0
   -2.3173   -5.1829    5.3403 H   0  0  0  0  0  0  0  0  0  0  0  0
   -1.7097   -3.8795    6.3976 H   0  0  0  0  0  0  0  0  0  0  0  0
    7.4945   -1.9305   -2.4222 H   0  0  0  0  0  0  0  0  0  0  0  0
    7.3196   -0.1545   -2.5738 H   0  0  0  0  0  0  0  0  0  0  0  0
    6.6805   -1.2229   -3.8509 H   0  0  0  0  0  0  0  0  0  0  0  0
    2.1280   -2.9866    2.0863 H   0  0  0  0  0  0  0  0  0  0  0  0
    3.3154   -2.4169    0.9873 H   0  0  0  0  0  0  0  0  0  0  0  0
    2.3506   -3.9167   -0.8205 H   0  0  0  0  0  0  0  0  0  0  0  0
    1.1914   -4.5214    0.3266 H   0  0  0  0  0  0  0  0  0  0  0  0
    4.2413   -4.7824    0.6221 H   0  0  0  0  0  0  0  0  0  0  0  0
    3.1558   -6.0857    0.1476 H   0  0  0  0  0  0  0  0  0  0  0  0
    3.0690   -5.4077    1.7698 H   0  0  0  0  0  0  0  0  0  0  0  0
   -4.1975    2.0359    1.7606 H   0  0  0  0  0  0  0  0  0  0  0  0
   -3.6164    1.0643    3.1272 H   0  0  0  0  0  0  0  0  0  0  0  0
   -4.4131    0.2680    1.7384 H   0  0  0  0  0  0  0  0  0  0  0  0
   -4.7611   -1.9215   -0.7169 H   0  0  0  0  0  0  0  0  0  0  0  0
   -4.7691   -0.8056   -2.0996 H   0  0  0  0  0  0  0  0  0  0  0  0
   -5.2114   -0.2238   -0.4621 H   0  0  0  0  0  0  0  0  0  0  0  0
    2.5993    6.0124   -3.4893 H   0  0  0  0  0  0  0  0  0  0  0  0
    1.3233    5.4657   -4.5728 H   0  0  0  0  0  0  0  0  0  0  0  0
    2.8586    4.6129   -4.5253 H   0  0  0  0  0  0  0  0  0  0  0  0
    2.3830    3.8970   -2.1516 H   0  0  0  0  0  0  0  0  0  0  0  0
    0.8639    4.7484   -2.1918 H   0  0  0  0  0  0  0  0  0  0  0  0
    0.0462    3.2459   -4.0190 H   0  0  0  0  0  0  0  0  0  0  0  0
    1.5621    2.4392   -4.0776 H   0  0  0  0  0  0  0  0  0  0  0  0
   -0.0460    2.5786    2.1666 C   0  0  0  0  0  0  0  0  0  0  0  0
    2.9289   -3.2212    5.6754 C   0  0  0  0  0  0  0  0  0  0  0  0
   -3.4162    1.4980    5.6938 C   0  0  0  0  0  0  0  0  0  0  0  0
   -2.4378    0.5212    5.8259 C   0  0  0  0  0  0  0  0  0  0  0  0
   -1.1345    0.7732    5.2744 C   0  0  0  0  0  0  0  0  0  0  0  0
   -1.0039    1.8215    4.3238 C   0  0  0  0  0  0  0  0  0  0  0  0
   -2.0202    2.7701    4.2296 C   0  0  0  0  0  0  0  0  0  0  0  0
   -3.1985    2.6366    4.9352 C   0  0  0  0  0  0  0  0  0  0  0  0
   -0.0086   -0.0814    5.5270 C   0  0  0  0  0  0  0  0  0  0  0  0
    1.0433   -0.1111    4.5776 C   0  0  0  0  0  0  0  0  0  0  0  0
    1.0916    0.8601    3.5406 C   0  0  0  0  0  0  0  0  0  0  0  0
    0.0680    1.8062    3.4209 N   0  0  0  0  0  0  0  0  0  0  0  0
    0.1044   -0.9248    6.6841 C   0  0  0  0  0  0  0  0  0  0  0  0
    0.9653   -2.0535    6.6241 C   0  0  0  0  0  0  0  0  0  0  0  0
    1.9499   -2.1172    5.6307 N   0  0  0  0  0  0  0  0  0  0  0  0
    2.0465   -1.1175    4.6542 C   0  0  0  0  0  0  0  0  0  0  0  0
    3.0833   -1.0892    3.7296 C   0  0  0  0  0  0  0  0  0  0  0  0
    3.1594   -0.1095    2.7581 C   0  0  0  0  0  0  0  0  0  0  0  0
    2.1680    0.8459    2.6642 C   0  0  0  0  0  0  0  0  0  0  0  0
   -0.5690   -0.6426    7.9225 C   0  0  0  0  0  0  0  0  0  0  0  0
   -0.6451   -1.6535    8.8729 C   0  0  0  0  0  0  0  0  0  0  0  0
    0.0144   -2.8590    8.6963 C   0  0  0  0  0  0  0  0  0  0  0  0
    0.8469   -3.0308    7.6100 C   0  0  0  0  0  0  0  0  0  0  0  0
   -1.0557    0.6442    8.1372 O   0  0  0  0  0  0  0  0  0  0  0  0
   -2.7028   -0.7245    6.3948 O   0  0  0  0  0  0  0  0  0  0  0  0
   -4.2610    3.6512    4.7789 C   0  0  0  0  0  0  0  0  0  0  0  0
   -0.1309   -3.9418    9.6911 C   0  0  0  0  0  0  0  0  0  0  0  0
    4.2888   -0.0845    1.8071 C   0  0  0  0  0  0  0  0  0  0  0  0
    4.4041    0.8491    1.0343 O   0  0  0  0  0  0  0  0  0  0  0  0
    5.1427   -1.1531    1.8539 O   0  0  0  0  0  0  0  0  0  0  0  0
    6.1402   -0.9866    0.9008 C   0  0  0  0  0  0  0  0  0  0  0  0
   -4.0931    4.5837    4.0147 O   0  0  0  0  0  0  0  0  0  0  0  0
   -5.3982    3.4590    5.5137 O   0  0  0  0  0  0  0  0  0  0  0  0
   -6.2896    4.4982    5.2686 C   0  0  0  0  0  0  0  0  0  0  0  0
   -0.8034   -3.7625   10.6893 O   0  0  0  0  0  0  0  0  0  0  0  0
    0.5157   -5.1129    9.4030 O   0  0  0  0  0  0  0  0  0  0  0  0
    0.2819   -6.0324   10.4200 C   0  0  0  0  0  0  0  0  0  0  0  0
   -4.3699    1.3771    6.1710 H   0  0  0  0  0  0  0  0  0  0  0  0
   -1.9147    3.6258    3.5897 H   0  0  0  0  0  0  0  0  0  0  0  0
   -1.2095   -1.5202    9.7760 H   0  0  0  0  0  0  0  0  0  0  0  0
    1.3837   -3.9571    7.5360 H   0  0  0  0  0  0  0  0  0  0  0  0
    3.8586   -1.8296    3.7416 H   0  0  0  0  0  0  0  0  0  0  0  0
    2.2670    1.5892    1.8963 H   0  0  0  0  0  0  0  0  0  0  0  0
    2.4458   -4.4358    4.8989 C   0  0  0  0  0  0  0  0  0  0  0  0
    3.3833   -5.6245    5.0120 C   0  0  0  0  0  0  0  0  0  0  0  0
    0.6459    3.9288    2.2313 C   0  0  0  0  0  0  0  0  0  0  0  0
    0.5708    4.6721    0.9093 C   0  0  0  0  0  0  0  0  0  0  0  0
   -1.8304    0.8029    9.2993 C   0  0  0  0  0  0  0  0  0  0  0  0
   -4.0557   -1.1116    6.3935 C   0  0  0  0  0  0  0  0  0  0  0  0
   -7.1938    4.3446    5.8610 H   0  0  0  0  0  0  0  0  0  0  0  0
   -6.5353    4.5122    4.2042 H   0  0  0  0  0  0  0  0  0  0  0  0
   -5.8157    5.4428    5.5456 H   0  0  0  0  0  0  0  0  0  0  0  0
    0.7957   -6.9672   10.1871 H   0  0  0  0  0  0  0  0  0  0  0  0
   -0.7937   -6.2054   10.5012 H   0  0  0  0  0  0  0  0  0  0  0  0
    0.6569   -5.6222   11.3606 H   0  0  0  0  0  0  0  0  0  0  0  0
    6.8385   -1.8240    0.9534 H   0  0  0  0  0  0  0  0  0  0  0  0
    6.6615   -0.0458    1.0916 H   0  0  0  0  0  0  0  0  0  0  0  0
    5.6715   -0.9496   -0.0840 H   0  0  0  0  0  0  0  0  0  0  0  0
    3.1232   -3.4801    6.7192 H   0  0  0  0  0  0  0  0  0  0  0  0
    3.8980   -2.8802    5.3071 H   0  0  0  0  0  0  0  0  0  0  0  0
    2.3080   -4.1580    3.8489 H   0  0  0  0  0  0  0  0  0  0  0  0
    1.4410   -4.7055    5.2452 H   0  0  0  0  0  0  0  0  0  0  0  0
    4.3776   -5.3790    4.6357 H   0  0  0  0  0  0  0  0  0  0  0  0
    3.0209   -6.4867    4.4488 H   0  0  0  0  0  0  0  0  0  0  0  0
    3.4992   -5.9364    6.0511 H   0  0  0  0  0  0  0  0  0  0  0  0
   -2.2178    1.8223    9.3155 H   0  0  0  0  0  0  0  0  0  0  0  0
   -1.2115    0.6421   10.1829 H   0  0  0  0  0  0  0  0  0  0  0  0
   -2.6683    0.1046    9.2786 H   0  0  0  0  0  0  0  0  0  0  0  0
   -4.0929   -2.1910    6.5489 H   0  0  0  0  0  0  0  0  0  0  0  0
   -4.5055   -0.8846    5.4261 H   0  0  0  0  0  0  0  0  0  0  0  0
   -4.5897   -0.6056    7.1984 H   0  0  0  0  0  0  0  0  0  0  0  0
    1.0754    5.6391    0.9514 H   0  0  0  0  0  0  0  0  0  0  0  0
   -0.4650    4.8511    0.6160 H   0  0  0  0  0  0  0  0  0  0  0  0
    1.0350    4.0902    0.1120 H   0  0  0  0  0  0  0  0  0  0  0  0
    1.6917    3.7855    2.5303 H   0  0  0  0  0  0  0  0  0  0  0  0
    0.2032    4.5281    3.0364 H   0  0  0  0  0  0  0  0  0  0  0  0
   -1.1042    2.6922    1.9146 H   0  0  0  0  0  0  0  0  0  0  0  0
    0.3566    1.9784    1.3468 H   0  0  0  0  0  0  0  0  0  0  0  0
  1 46  1  0  0  0  0
  1 77  1  0  0  0  0
  1 78  1  0  0  0  0
  2 44  1  0  0  0  0
  2 59  1  0  0  0  0
  2 60  1  0  0  0  0
  3  4  2  0  0  0  0
  3 38  1  0  0  0  0
  4  5  1  0  0  0  0
  4 25  1  0  0  0  0
  5  6  2  0  0  0  0
  5  9  1  0  0  0  0
  6  7  1  0  0  0  0
  7  8  2  0  0  0  0
  7 39  1  0  0  0  0
  8  3  1  0  0  0  0
  8 26  1  0  0  0  0
  9 10  1  0  0  0  0
 10 11  2  0  0  0  0
 11 12  1  0  0  0  0
 12  1  1  0  0  0  0
 12  6  1  0  0  0  0
 13 14  2  0  0  0  0
 13 20  1  0  0  0  0
 13  9  1  0  0  0  0
 14 15  1  0  0  0  0
 15  2  1  0  0  0  0
 15 16  1  0  0  0  0
 16 10  1  0  0  0  0
 16 17  2  0  0  0  0
 17 18  1  0  0  0  0
 17 42  1  0  0  0  0
 18 19  2  0  0  0  0
 18 28  1  0  0  0  0
 19 11  1  0  0  0  0
 19 43  1  0  0  0  0
 20 21  2  0  0  0  0
 21 22  1  0  0  0  0
 21 40  1  0  0  0  0
 22 23  2  0  0  0  0
 22 27  1  0  0  0  0
 23 14  1  0  0  0  0
 23 41  1  0  0  0  0
 24 48  1  0  0  0  0
 24 20  1  0  0  0  0
 25 49  1  0  0  0  0
 26 32  2  0  0  0  0
 26 33  1  0  0  0  0
 27 35  2  0  0  0  0
 27 36  1  0  0  0  0
 28 29  2  0  0  0  0
 28 30  1  0  0  0  0
 30 31  1  0  0  0  0
 31 56  1  0  0  0  0
 31 57  1  0  0  0  0
 31 58  1  0  0  0  0
 33 34  1  0  0  0  0
 34 50  1  0  0  0  0
 34 51  1  0  0  0  0
 34 52  1  0  0  0  0
 36 37  1  0  0  0  0
 37 53  1  0  0  0  0
 37 54  1  0  0  0  0
 37 55  1  0  0  0  0
 44 45  1  0  0  0  0
 44 61  1  0  0  0  0
 44 62  1  0  0  0  0
 45 63  1  0  0  0  0
 45 64  1  0  0  0  0
 45 65  1  0  0  0  0
 46 47  1  0  0  0  0
 46 75  1  0  0  0  0
 46 76  1  0  0  0  0
 47 72  1  0  0  0  0
 47 73  1  0  0  0  0
 47 74  1  0  0  0  0
 48 66  1  0  0  0  0
 48 67  1  0  0  0  0
 48 68  1  0  0  0  0
 49 69  1  0  0  0  0
 49 70  1  0  0  0  0
 49 71  1  0  0  0  0
 79124  1  0  0  0  0
 79155  1  0  0  0  0
 79156  1  0  0  0  0
 80122  1  0  0  0  0
 80137  1  0  0  0  0
 80138  1  0  0  0  0
 81 82  2  0  0  0  0
 81116  1  0  0  0  0
 82 83  1  0  0  0  0
 82103  1  0  0  0  0
 83 84  2  0  0  0  0
 83 87  1  0  0  0  0
 84 85  1  0  0  0  0
 85 86  2  0  0  0  0
 85117  1  0  0  0  0
 86 81  1  0  0  0  0
 86104  1  0  0  0  0
 87 88  1  0  0  0  0
 88 89  2  0  0  0  0
 89 90  1  0  0  0  0
 90 79  1  0  0  0  0
 90 84  1  0  0  0  0
 91 92  2  0  0  0  0
 91 98  1  0  0  0  0
 91 87  1  0  0  0  0
 92 93  1  0  0  0  0
 93 80  1  0  0  0  0
 93 94  1  0  0  0  0
 94 88  1  0  0  0  0
 94 95  2  0  0  0  0
 95 96  1  0  0  0  0
 95120  1  0  0  0  0
 96 97  2  0  0  0  0
 96106  1  0  0  0  0
 97 89  1  0  0  0  0
 97121  1  0  0  0  0
 98 99  2  0  0  0  0
 99100  1  0  0  0  0
 99118  1  0  0  0  0
100101  2  0  0  0  0
100105  1  0  0  0  0
101 92  1  0  0  0  0
101119  1  0  0  0  0
102126  1  0  0  0  0
102 98  1  0  0  0  0
103127  1  0  0  0  0
104110  2  0  0  0  0
104111  1  0  0  0  0
105113  2  0  0  0  0
105114  1  0  0  0  0
106107  2  0  0  0  0
106108  1  0  0  0  0
108109  1  0  0  0  0
109134  1  0  0  0  0
109135  1  0  0  0  0
109136  1  0  0  0  0
111112  1  0  0  0  0
112128  1  0  0  0  0
112129  1  0  0  0  0
112130  1  0  0  0  0
114115  1  0  0  0  0
115131  1  0  0  0  0
115132  1  0  0  0  0
115133  1  0  0  0  0
122123  1  0  0  0  0
122139  1  0  0  0  0
122140  1  0  0  0  0
123141  1  0  0  0  0
123142  1  0  0  0  0
123143  1  0  0  0  0
124125  1  0  0  0  0
124153  1  0  0  0  0
124154  1  0  0  0  0
125150  1  0  0  0  0
125151  1  0  0  0  0
125152  1  0  0  0  0
126144  1  0  0  0  0
126145  1  0  0  0  0
126146  1  0  0  0  0
127147  1  0  0  0  0
127148  1  0  0  0  0
127149  1  0  0  0  0
M  END
