 energy: -209.500070167330 gnorm: 0.000091251646 xtb: 6.7.1 (edcfbbe)
          03172512183D

141152  0     0  0            999 V2000
   -2.0244   -3.1224    1.4375 C   0  0  0  0  0  0  0  0  0  0  0  0
   -2.1614   -1.7929    1.0473 C   0  0  0  0  0  0  0  0  0  0  0  0
   -2.9733   -1.4341   -0.0640 C   0  0  0  0  0  0  0  0  0  0  0  0
   -3.5053   -2.5337   -0.7890 C   0  0  0  0  0  0  0  0  0  0  0  0
   -3.2770   -3.8546   -0.4129 C   0  0  0  0  0  0  0  0  0  0  0  0
   -2.5751   -4.1823    0.7308 C   0  0  0  0  0  0  0  0  0  0  0  0
   -3.3950   -0.0933   -0.3756 C   0  0  0  0  0  0  0  0  0  0  0  0
   -4.5828    0.0059   -1.1576 C   0  0  0  0  0  0  0  0  0  0  0  0
   -5.0452   -1.0573   -1.9725 C   0  0  0  0  0  0  0  0  0  0  0  0
   -4.3882   -2.3557   -1.9344 C   0  0  0  0  0  0  0  0  0  0  0  0
   -2.8162    1.1606    0.0575 C   0  0  0  0  0  0  0  0  0  0  0  0
   -3.6562    2.3065    0.1148 C   0  0  0  0  0  0  0  0  0  0  0  0
   -5.0533    2.2860   -0.3035 C   0  0  0  0  0  0  0  0  0  0  0  0
   -5.3958    1.1633   -1.1631 C   0  0  0  0  0  0  0  0  0  0  0  0
   -6.5373    1.2589   -1.9495 C   0  0  0  0  0  0  0  0  0  0  0  0
   -6.9341    0.2403   -2.8016 C   0  0  0  0  0  0  0  0  0  0  0  0
   -6.1625   -0.9145   -2.7819 C   0  0  0  0  0  0  0  0  0  0  0  0
   -1.4362    1.4220    0.3123 C   0  0  0  0  0  0  0  0  0  0  0  0
   -0.9944    2.7172    0.5973 C   0  0  0  0  0  0  0  0  0  0  0  0
   -1.8407    3.8121    0.6845 C   0  0  0  0  0  0  0  0  0  0  0  0
   -3.1812    3.5671    0.4604 C   0  0  0  0  0  0  0  0  0  0  0  0
   -1.5149   -0.8884    1.7976 O   0  0  0  0  0  0  0  0  0  0  0  0
   -0.4647    0.5057    0.1790 O   0  0  0  0  0  0  0  0  0  0  0  0
   -0.2063   -0.4774    1.2331 B   0  0  0  0  0  0  0  0  0  0  0  0
    1.8318   -3.3423    1.2670 C   0  0  0  0  0  0  0  0  0  0  0  0
    1.7124   -2.0064    0.8820 C   0  0  0  0  0  0  0  0  0  0  0  0
    2.8819   -1.2317    0.6204 C   0  0  0  0  0  0  0  0  0  0  0  0
    4.0545   -2.0161    0.4379 C   0  0  0  0  0  0  0  0  0  0  0  0
    4.1339   -3.3532    0.8326 C   0  0  0  0  0  0  0  0  0  0  0  0
    3.0394   -4.0282    1.3264 C   0  0  0  0  0  0  0  0  0  0  0  0
    2.9956    0.2068    0.4672 C   0  0  0  0  0  0  0  0  0  0  0  0
    4.0426    0.6541   -0.3869 C   0  0  0  0  0  0  0  0  0  0  0  0
    5.0411   -0.2100   -0.8960 C   0  0  0  0  0  0  0  0  0  0  0  0
    2.3640    1.2171    1.2690 C   0  0  0  0  0  0  0  0  0  0  0  0
    2.8215    2.5624    1.1825 C   0  0  0  0  0  0  0  0  0  0  0  0
    3.5115    3.0517   -0.0036 C   0  0  0  0  0  0  0  0  0  0  0  0
    4.1799    2.0127   -0.7699 C   0  0  0  0  0  0  0  0  0  0  0  0
    5.0711    2.3927   -1.7628 C   0  0  0  0  0  0  0  0  0  0  0  0
    5.9398    1.4964   -2.3733 C   0  0  0  0  0  0  0  0  0  0  0  0
    5.9465    0.2068   -1.8641 C   0  0  0  0  0  0  0  0  0  0  0  0
    1.4150    1.0153    2.3212 C   0  0  0  0  0  0  0  0  0  0  0  0
    1.3509    1.9129    3.3821 C   0  0  0  0  0  0  0  0  0  0  0  0
    2.0310    3.1277    3.4007 C   0  0  0  0  0  0  0  0  0  0  0  0
    2.6708    3.4749    2.2270 C   0  0  0  0  0  0  0  0  0  0  0  0
    0.5645   -0.0046    2.3913 O   0  0  0  0  0  0  0  0  0  0  0  0
    0.4595   -1.6195    0.6442 O   0  0  0  0  0  0  0  0  0  0  0  0
    5.2146   -1.5219   -0.2925 C   0  0  0  0  0  0  0  0  0  0  0  0
    3.6038    4.2549   -0.2774 O   0  0  0  0  0  0  0  0  0  0  0  0
    6.2539   -2.1800   -0.4371 O   0  0  0  0  0  0  0  0  0  0  0  0
   -4.6498   -3.2587   -2.7390 O   0  0  0  0  0  0  0  0  0  0  0  0
   -5.8569    3.1888   -0.0395 O   0  0  0  0  0  0  0  0  0  0  0  0
   -2.4375   -5.6403    1.1419 C   0  0  0  0  0  0  0  0  0  0  0  0
   -1.6407   -5.8147    2.4364 C   0  0  0  0  0  0  0  0  0  0  0  0
   -1.7258   -6.4056    0.0179 C   0  0  0  0  0  0  0  0  0  0  0  0
   -3.8379   -6.2321    1.3608 C   0  0  0  0  0  0  0  0  0  0  0  0
   -1.3779    5.2331    0.9620 C   0  0  0  0  0  0  0  0  0  0  0  0
   -1.7503    6.1211   -0.2345 C   0  0  0  0  0  0  0  0  0  0  0  0
   -2.0904    5.7451    2.2225 C   0  0  0  0  0  0  0  0  0  0  0  0
    0.1304    5.3292    1.1800 C   0  0  0  0  0  0  0  0  0  0  0  0
   -8.1517    0.3247   -3.7090 C   0  0  0  0  0  0  0  0  0  0  0  0
   -7.7054    0.1247   -5.1641 C   0  0  0  0  0  0  0  0  0  0  0  0
   -8.8648    1.6756   -3.6058 C   0  0  0  0  0  0  0  0  0  0  0  0
   -9.1459   -0.7782   -3.3194 C   0  0  0  0  0  0  0  0  0  0  0  0
    3.0959   -5.4547    1.8494 C   0  0  0  0  0  0  0  0  0  0  0  0
    2.2633   -6.3662    0.9396 C   0  0  0  0  0  0  0  0  0  0  0  0
    2.5282   -5.4830    3.2750 C   0  0  0  0  0  0  0  0  0  0  0  0
    4.5275   -5.9976    1.8962 C   0  0  0  0  0  0  0  0  0  0  0  0
    2.0273    3.9888    4.6539 C   0  0  0  0  0  0  0  0  0  0  0  0
    2.6892    3.1821    5.7812 C   0  0  0  0  0  0  0  0  0  0  0  0
    2.8129    5.2895    4.4639 C   0  0  0  0  0  0  0  0  0  0  0  0
    0.5935    4.3494    5.0624 C   0  0  0  0  0  0  0  0  0  0  0  0
    6.8700    1.9708   -3.4786 C   0  0  0  0  0  0  0  0  0  0  0  0
    7.8259    3.0300   -2.9117 C   0  0  0  0  0  0  0  0  0  0  0  0
    7.7043    0.8299   -4.0675 C   0  0  0  0  0  0  0  0  0  0  0  0
    6.0312    2.5854   -4.6076 C   0  0  0  0  0  0  0  0  0  0  0  0
    8.3182    1.2057   -4.8864 H   0  0  0  0  0  0  0  0  0  0  0  0
    7.0608    0.0435   -4.4549 H   0  0  0  0  0  0  0  0  0  0  0  0
    8.3650    0.4031   -3.3168 H   0  0  0  0  0  0  0  0  0  0  0  0
    8.5036    3.3884   -3.6869 H   0  0  0  0  0  0  0  0  0  0  0  0
    8.4168    2.6041   -2.1030 H   0  0  0  0  0  0  0  0  0  0  0  0
    7.2732    3.8779   -2.5170 H   0  0  0  0  0  0  0  0  0  0  0  0
    6.6745    2.9369   -5.4145 H   0  0  0  0  0  0  0  0  0  0  0  0
    5.4452    3.4247   -4.2441 H   0  0  0  0  0  0  0  0  0  0  0  0
    5.3450    1.8424   -5.0089 H   0  0  0  0  0  0  0  0  0  0  0  0
    2.8068    5.8637    5.3908 H   0  0  0  0  0  0  0  0  0  0  0  0
    2.3663    5.8985    3.6821 H   0  0  0  0  0  0  0  0  0  0  0  0
    3.8461    5.0807    4.1969 H   0  0  0  0  0  0  0  0  0  0  0  0
    0.5954    4.9033    6.0018 H   0  0  0  0  0  0  0  0  0  0  0  0
   -0.0135    3.4579    5.1898 H   0  0  0  0  0  0  0  0  0  0  0  0
    0.1310    4.9695    4.2989 H   0  0  0  0  0  0  0  0  0  0  0  0
    2.7188    3.7629    6.7036 H   0  0  0  0  0  0  0  0  0  0  0  0
    3.7077    2.9181    5.5033 H   0  0  0  0  0  0  0  0  0  0  0  0
    2.1404    2.2630    5.9671 H   0  0  0  0  0  0  0  0  0  0  0  0
   -1.7487    6.7496    2.4737 H   0  0  0  0  0  0  0  0  0  0  0  0
   -1.8804    5.0843    3.0606 H   0  0  0  0  0  0  0  0  0  0  0  0
   -3.1672    5.7742    2.0778 H   0  0  0  0  0  0  0  0  0  0  0  0
   -1.4330    7.1485   -0.0562 H   0  0  0  0  0  0  0  0  0  0  0  0
   -2.8229    6.1160   -0.4103 H   0  0  0  0  0  0  0  0  0  0  0  0
   -1.2553    5.7570   -1.1320 H   0  0  0  0  0  0  0  0  0  0  0  0
    0.4078    6.3601    1.4028 H   0  0  0  0  0  0  0  0  0  0  0  0
    0.6803    5.0178    0.2960 H   0  0  0  0  0  0  0  0  0  0  0  0
    0.4388    4.7006    2.0091 H   0  0  0  0  0  0  0  0  0  0  0  0
  -10.0285   -0.7413   -3.9583 H   0  0  0  0  0  0  0  0  0  0  0  0
   -9.4597   -0.6488   -2.2854 H   0  0  0  0  0  0  0  0  0  0  0  0
   -8.6918   -1.7606   -3.4150 H   0  0  0  0  0  0  0  0  0  0  0  0
   -9.7196    1.6944   -4.2824 H   0  0  0  0  0  0  0  0  0  0  0  0
   -8.1953    2.4875   -3.8794 H   0  0  0  0  0  0  0  0  0  0  0  0
   -9.2271    1.8465   -2.5950 H   0  0  0  0  0  0  0  0  0  0  0  0
   -8.5611    0.1773   -5.8377 H   0  0  0  0  0  0  0  0  0  0  0  0
   -7.2237   -0.8403   -5.2933 H   0  0  0  0  0  0  0  0  0  0  0  0
   -6.9939    0.8986   -5.4453 H   0  0  0  0  0  0  0  0  0  0  0  0
    2.2913   -7.3955    1.2978 H   0  0  0  0  0  0  0  0  0  0  0  0
    2.6557   -6.3393   -0.0749 H   0  0  0  0  0  0  0  0  0  0  0  0
    1.2287   -6.0405    0.9100 H   0  0  0  0  0  0  0  0  0  0  0  0
    2.5241   -6.5007    3.6662 H   0  0  0  0  0  0  0  0  0  0  0  0
    1.5124   -5.1008    3.2978 H   0  0  0  0  0  0  0  0  0  0  0  0
    3.1356   -4.8606    3.9293 H   0  0  0  0  0  0  0  0  0  0  0  0
    4.5287   -6.9979    2.3302 H   0  0  0  0  0  0  0  0  0  0  0  0
    5.1621   -5.3580    2.5048 H   0  0  0  0  0  0  0  0  0  0  0  0
    4.9514   -6.0604    0.8972 H   0  0  0  0  0  0  0  0  0  0  0  0
   -1.5737   -6.8726    2.6922 H   0  0  0  0  0  0  0  0  0  0  0  0
   -2.1220   -5.2927    3.2605 H   0  0  0  0  0  0  0  0  0  0  0  0
   -0.6313   -5.4306    2.3228 H   0  0  0  0  0  0  0  0  0  0  0  0
   -3.7683   -7.2837    1.6404 H   0  0  0  0  0  0  0  0  0  0  0  0
   -4.4375   -6.1536    0.4584 H   0  0  0  0  0  0  0  0  0  0  0  0
   -4.3504   -5.6941    2.1560 H   0  0  0  0  0  0  0  0  0  0  0  0
   -1.5436   -7.4400    0.3108 H   0  0  0  0  0  0  0  0  0  0  0  0
   -0.7735   -5.9325   -0.2093 H   0  0  0  0  0  0  0  0  0  0  0  0
   -2.3238   -6.4035   -0.8891 H   0  0  0  0  0  0  0  0  0  0  0  0
   -3.7161   -4.6106   -1.0481 H   0  0  0  0  0  0  0  0  0  0  0  0
   -1.4310   -3.2752    2.3249 H   0  0  0  0  0  0  0  0  0  0  0  0
   -6.4160   -1.7716   -3.3908 H   0  0  0  0  0  0  0  0  0  0  0  0
   -7.0942    2.1791   -1.8576 H   0  0  0  0  0  0  0  0  0  0  0  0
   -3.9172    4.3579    0.4877 H   0  0  0  0  0  0  0  0  0  0  0  0
    0.0700    2.8236    0.7305 H   0  0  0  0  0  0  0  0  0  0  0  0
    0.6936    1.6259    4.1895 H   0  0  0  0  0  0  0  0  0  0  0  0
    3.1056    4.4490    2.0682 H   0  0  0  0  0  0  0  0  0  0  0  0
    0.8968   -3.8364    1.4823 H   0  0  0  0  0  0  0  0  0  0  0  0
    5.0942   -3.8240    0.6927 H   0  0  0  0  0  0  0  0  0  0  0  0
    5.0814    3.4452   -2.0114 H   0  0  0  0  0  0  0  0  0  0  0  0
    6.6685   -0.5301   -2.1820 H   0  0  0  0  0  0  0  0  0  0  0  0
  1  2  2  0  0  0  0
  1131  1  0  0  0  0
  2  3  1  0  0  0  0
  2 22  1  0  0  0  0
  3  4  2  0  0  0  0
  4  5  1  0  0  0  0
  5  6  2  0  0  0  0
  5130  1  0  0  0  0
  6 52  1  0  0  0  0
  6  1  1  0  0  0  0
  7  3  1  0  0  0  0
  7  8  1  0  0  0  0
  7 11  1  0  0  0  0
  8  9  2  0  0  0  0
  9 10  1  0  0  0  0
 10  4  1  0  0  0  0
 10 50  2  0  0  0  0
 11 12  2  0  0  0  0
 11 18  1  0  0  0  0
 13 14  1  0  0  0  0
 13 12  1  0  0  0  0
 13 51  2  0  0  0  0
 14  8  1  0  0  0  0
 14 15  2  0  0  0  0
 15 16  1  0  0  0  0
 15133  1  0  0  0  0
 16 60  1  0  0  0  0
 16 17  2  0  0  0  0
 17  9  1  0  0  0  0
 17132  1  0  0  0  0
 18 19  2  0  0  0  0
 18 23  1  0  0  0  0
 19 20  1  0  0  0  0
 19135  1  0  0  0  0
 20 56  1  0  0  0  0
 20 21  2  0  0  0  0
 21 12  1  0  0  0  0
 21134  1  0  0  0  0
 24 23  1  0  0  0  0
 24 22  1  0  0  0  0
 25 26  2  0  0  0  0
 25138  1  0  0  0  0
 26 27  1  0  0  0  0
 26 46  1  0  0  0  0
 27 28  2  0  0  0  0
 28 29  1  0  0  0  0
 28 47  1  0  0  0  0
 29 30  2  0  0  0  0
 29139  1  0  0  0  0
 30 64  1  0  0  0  0
 30 25  1  0  0  0  0
 31 27  1  0  0  0  0
 31 32  1  0  0  0  0
 32 33  2  0  0  0  0
 34 35  2  0  0  0  0
 34 41  1  0  0  0  0
 34 31  1  0  0  0  0
 36 37  1  0  0  0  0
 36 35  1  0  0  0  0
 36 48  2  0  0  0  0
 37 32  1  0  0  0  0
 37 38  2  0  0  0  0
 38 39  1  0  0  0  0
 38140  1  0  0  0  0
 39 72  1  0  0  0  0
 39 40  2  0  0  0  0
 40 33  1  0  0  0  0
 40141  1  0  0  0  0
 41 42  2  0  0  0  0
 41 45  1  0  0  0  0
 42 43  1  0  0  0  0
 42136  1  0  0  0  0
 43 68  1  0  0  0  0
 43 44  2  0  0  0  0
 44 35  1  0  0  0  0
 44137  1  0  0  0  0
 45 24  1  0  0  0  0
 46 24  1  0  0  0  0
 47 33  1  0  0  0  0
 47 49  2  0  0  0  0
 52 53  1  0  0  0  0
 52 54  1  0  0  0  0
 52 55  1  0  0  0  0
 53121  1  0  0  0  0
 53122  1  0  0  0  0
 53123  1  0  0  0  0
 54127  1  0  0  0  0
 54128  1  0  0  0  0
 54129  1  0  0  0  0
 55124  1  0  0  0  0
 55125  1  0  0  0  0
 55126  1  0  0  0  0
 56 57  1  0  0  0  0
 56 58  1  0  0  0  0
 56 59  1  0  0  0  0
 57 97  1  0  0  0  0
 57 98  1  0  0  0  0
 57 99  1  0  0  0  0
 58 94  1  0  0  0  0
 58 95  1  0  0  0  0
 58 96  1  0  0  0  0
 59100  1  0  0  0  0
 59101  1  0  0  0  0
 59102  1  0  0  0  0
 60 61  1  0  0  0  0
 60 62  1  0  0  0  0
 60 63  1  0  0  0  0
 61109  1  0  0  0  0
 61110  1  0  0  0  0
 61111  1  0  0  0  0
 62106  1  0  0  0  0
 62107  1  0  0  0  0
 62108  1  0  0  0  0
 63103  1  0  0  0  0
 63104  1  0  0  0  0
 63105  1  0  0  0  0
 64 65  1  0  0  0  0
 64 66  1  0  0  0  0
 64 67  1  0  0  0  0
 65112  1  0  0  0  0
 65113  1  0  0  0  0
 65114  1  0  0  0  0
 66115  1  0  0  0  0
 66116  1  0  0  0  0
 66117  1  0  0  0  0
 67118  1  0  0  0  0
 67119  1  0  0  0  0
 67120  1  0  0  0  0
 68 69  1  0  0  0  0
 68 70  1  0  0  0  0
 68 71  1  0  0  0  0
 69 91  1  0  0  0  0
 69 92  1  0  0  0  0
 69 93  1  0  0  0  0
 70 85  1  0  0  0  0
 70 86  1  0  0  0  0
 70 87  1  0  0  0  0
 71 88  1  0  0  0  0
 71 89  1  0  0  0  0
 71 90  1  0  0  0  0
 72 73  1  0  0  0  0
 72 74  1  0  0  0  0
 72 75  1  0  0  0  0
 73 79  1  0  0  0  0
 73 80  1  0  0  0  0
 73 81  1  0  0  0  0
 74 76  1  0  0  0  0
 74 77  1  0  0  0  0
 74 78  1  0  0  0  0
 75 82  1  0  0  0  0
 75 83  1  0  0  0  0
 75 84  1  0  0  0  0
M  CHG  1   1  -2
M  END
