 energy: -55.130630897847 gnorm: 0.000621339444 xtb: 6.7.1 (edcfbbe)
          03172512273D

282304  0     0  0            999 V2000
   -2.5887   -2.5541    2.4225 C   0  0  0  0  0  0  0  0  0  0  0  0
   -2.9802   -1.3970    1.7413 C   0  0  0  0  0  0  0  0  0  0  0  0
   -3.5631   -1.5026    0.4394 C   0  0  0  0  0  0  0  0  0  0  0  0
   -3.9485   -2.8037    0.0263 C   0  0  0  0  0  0  0  0  0  0  0  0
   -3.5637   -3.9201    0.7544 C   0  0  0  0  0  0  0  0  0  0  0  0
   -2.8422   -3.8212    1.9367 C   0  0  0  0  0  0  0  0  0  0  0  0
   -3.8847   -0.3484   -0.3707 C   0  0  0  0  0  0  0  0  0  0  0  0
   -4.9648   -0.5053   -1.3148 C   0  0  0  0  0  0  0  0  0  0  0  0
   -5.4438   -1.7845   -1.6826 C   0  0  0  0  0  0  0  0  0  0  0  0
   -4.8454   -2.9893   -1.1139 C   0  0  0  0  0  0  0  0  0  0  0  0
   -3.2028    0.9316   -0.3236 C   0  0  0  0  0  0  0  0  0  0  0  0
   -3.8214    2.0619   -0.9229 C   0  0  0  0  0  0  0  0  0  0  0  0
   -5.1354    1.9586   -1.5590 C   0  0  0  0  0  0  0  0  0  0  0  0
   -5.6000    0.6171   -1.8902 C   0  0  0  0  0  0  0  0  0  0  0  0
   -6.6630    0.4546   -2.7638 C   0  0  0  0  0  0  0  0  0  0  0  0
   -7.1278   -0.8008   -3.1292 C   0  0  0  0  0  0  0  0  0  0  0  0
   -6.4937   -1.9050   -2.5788 C   0  0  0  0  0  0  0  0  0  0  0  0
   -1.8834    1.1436    0.2133 C   0  0  0  0  0  0  0  0  0  0  0  0
   -1.2947    2.4115    0.1027 C   0  0  0  0  0  0  0  0  0  0  0  0
   -1.9282    3.5018   -0.4464 C   0  0  0  0  0  0  0  0  0  0  0  0
   -3.2027    3.3030   -0.9505 C   0  0  0  0  0  0  0  0  0  0  0  0
   -2.8633   -0.1815    2.3783 O   0  0  0  0  0  0  0  0  0  0  0  0
   -1.1357    0.2128    0.9134 O   0  0  0  0  0  0  0  0  0  0  0  0
   -1.4627    0.2829    2.3637 B   0  0  0  0  0  0  0  0  0  0  0  0
    1.1838   -2.0139    3.3799 C   0  0  0  0  0  0  0  0  0  0  0  0
    0.6840   -0.8100    2.8477 C   0  0  0  0  0  0  0  0  0  0  0  0
    1.4660   -0.1002    1.8571 C   0  0  0  0  0  0  0  0  0  0  0  0
    2.3856   -0.9252    1.1401 C   0  0  0  0  0  0  0  0  0  0  0  0
    2.7486   -2.1764    1.6200 C   0  0  0  0  0  0  0  0  0  0  0  0
    2.2363   -2.6955    2.8010 C   0  0  0  0  0  0  0  0  0  0  0  0
    1.5323    1.3451    1.6775 C   0  0  0  0  0  0  0  0  0  0  0  0
    2.4534    1.8401    0.6781 C   0  0  0  0  0  0  0  0  0  0  0  0
    3.0394    0.9883   -0.2929 C   0  0  0  0  0  0  0  0  0  0  0  0
    0.9850    2.3375    2.5990 C   0  0  0  0  0  0  0  0  0  0  0  0
    1.6931    3.5620    2.8019 C   0  0  0  0  0  0  0  0  0  0  0  0
    2.6828    4.0278    1.8401 C   0  0  0  0  0  0  0  0  0  0  0  0
    2.8843    3.1922    0.6635 C   0  0  0  0  0  0  0  0  0  0  0  0
    3.6349    3.6827   -0.3933 C   0  0  0  0  0  0  0  0  0  0  0  0
    4.0434    2.8752   -1.4438 C   0  0  0  0  0  0  0  0  0  0  0  0
    3.7739    1.5170   -1.3451 C   0  0  0  0  0  0  0  0  0  0  0  0
   -0.2506    2.2454    3.3425 C   0  0  0  0  0  0  0  0  0  0  0  0
   -0.3980    3.0097    4.5135 C   0  0  0  0  0  0  0  0  0  0  0  0
    0.4756    4.0261    4.8460 C   0  0  0  0  0  0  0  0  0  0  0  0
    1.4519    4.3520    3.9154 C   0  0  0  0  0  0  0  0  0  0  0  0
   -1.3948    1.6326    2.8992 O   0  0  0  0  0  0  0  0  0  0  0  0
   -0.5936   -0.5184    3.2277 O   0  0  0  0  0  0  0  0  0  0  0  0
    3.0418   -0.4515   -0.0777 C   0  0  0  0  0  0  0  0  0  0  0  0
    3.3282    5.0527    2.0228 O   0  0  0  0  0  0  0  0  0  0  0  0
    3.6320   -1.2127   -0.8333 O   0  0  0  0  0  0  0  0  0  0  0  0
   -5.1286   -4.1038   -1.5338 O   0  0  0  0  0  0  0  0  0  0  0  0
   -5.7978    2.9526   -1.8288 O   0  0  0  0  0  0  0  0  0  0  0  0
   -2.4719   -5.0751    2.7385 C   0  0  0  0  0  0  0  0  0  0  0  0
   -1.3720   -4.7602    3.7681 C   0  0  0  0  0  0  0  0  0  0  0  0
   -1.9413   -6.1724    1.7961 C   0  0  0  0  0  0  0  0  0  0  0  0
   -3.7202   -5.5803    3.4791 C   0  0  0  0  0  0  0  0  0  0  0  0
   -1.2259    4.8662   -0.4371 C   0  0  0  0  0  0  0  0  0  0  0  0
   -2.0678    5.9440   -1.1438 C   0  0  0  0  0  0  0  0  0  0  0  0
   -0.9952    5.3001    1.0222 C   0  0  0  0  0  0  0  0  0  0  0  0
    0.1283    4.7499   -1.1612 C   0  0  0  0  0  0  0  0  0  0  0  0
   -8.2982   -0.9984   -4.1044 C   0  0  0  0  0  0  0  0  0  0  0  0
   -7.8116   -1.7967   -5.3279 C   0  0  0  0  0  0  0  0  0  0  0  0
   -8.8653    0.3478   -4.5957 C   0  0  0  0  0  0  0  0  0  0  0  0
   -9.4264   -1.7713   -3.3964 C   0  0  0  0  0  0  0  0  0  0  0  0
    2.7821   -4.0133    3.3697 C   0  0  0  0  0  0  0  0  0  0  0  0
    2.3672   -5.1769    2.4540 C   0  0  0  0  0  0  0  0  0  0  0  0
    2.2573   -4.2761    4.7956 C   0  0  0  0  0  0  0  0  0  0  0  0
    4.3194   -3.9427    3.4408 C   0  0  0  0  0  0  0  0  0  0  0  0
    0.3717    4.7163    6.2091 C   0  0  0  0  0  0  0  0  0  0  0  0
    0.6782    3.6658    7.2886 C   0  0  0  0  0  0  0  0  0  0  0  0
    1.3825    5.8700    6.3511 C   0  0  0  0  0  0  0  0  0  0  0  0
   -1.0444    5.2841    6.4054 C   0  0  0  0  0  0  0  0  0  0  0  0
    4.8347    3.4832   -2.6102 C   0  0  0  0  0  0  0  0  0  0  0  0
    6.1863    4.0051   -2.0909 C   0  0  0  0  0  0  0  0  0  0  0  0
    5.0988    2.4463   -3.7188 C   0  0  0  0  0  0  0  0  0  0  0  0
    4.0280    4.6462   -3.2192 C   0  0  0  0  0  0  0  0  0  0  0  0
    5.6171    2.9038   -4.5627 H   0  0  0  0  0  0  0  0  0  0  0  0
    4.1638    2.0264   -4.0913 H   0  0  0  0  0  0  0  0  0  0  0  0
    5.7233    1.6300   -3.3548 H   0  0  0  0  0  0  0  0  0  0  0  0
    6.7777    4.4345   -2.9008 H   0  0  0  0  0  0  0  0  0  0  0  0
    6.7647    3.1971   -1.6416 H   0  0  0  0  0  0  0  0  0  0  0  0
    6.0465    4.7768   -1.3337 H   0  0  0  0  0  0  0  0  0  0  0  0
    4.5517    5.0825   -4.0708 H   0  0  0  0  0  0  0  0  0  0  0  0
    3.8613    5.4393   -2.4904 H   0  0  0  0  0  0  0  0  0  0  0  0
    3.0534    4.2992   -3.5638 H   0  0  0  0  0  0  0  0  0  0  0  0
    1.2947    6.3421    7.3306 H   0  0  0  0  0  0  0  0  0  0  0  0
    1.2102    6.6378    5.5962 H   0  0  0  0  0  0  0  0  0  0  0  0
    2.4071    5.5103    6.2514 H   0  0  0  0  0  0  0  0  0  0  0  0
   -1.1302    5.7946    7.3652 H   0  0  0  0  0  0  0  0  0  0  0  0
   -1.7965    4.4973    6.3835 H   0  0  0  0  0  0  0  0  0  0  0  0
   -1.2858    5.9995    5.6188 H   0  0  0  0  0  0  0  0  0  0  0  0
    0.5818    4.0949    8.2834 H   0  0  0  0  0  0  0  0  0  0  0  0
    1.6931    3.2820    7.1820 H   0  0  0  0  0  0  0  0  0  0  0  0
   -0.0037    2.8189    7.2172 H   0  0  0  0  0  0  0  0  0  0  0  0
   -0.4903    6.2652    1.0699 H   0  0  0  0  0  0  0  0  0  0  0  0
   -0.3796    4.5770    1.5549 H   0  0  0  0  0  0  0  0  0  0  0  0
   -1.9425    5.3853    1.5553 H   0  0  0  0  0  0  0  0  0  0  0  0
   -1.5501    6.9042   -1.1399 H   0  0  0  0  0  0  0  0  0  0  0  0
   -3.0266    6.0845   -0.6436 H   0  0  0  0  0  0  0  0  0  0  0  0
   -2.2568    5.6737   -2.1831 H   0  0  0  0  0  0  0  0  0  0  0  0
    0.6488    5.7079   -1.1755 H   0  0  0  0  0  0  0  0  0  0  0  0
   -0.0110    4.4243   -2.1923 H   0  0  0  0  0  0  0  0  0  0  0  0
    0.7790    4.0280   -0.6700 H   0  0  0  0  0  0  0  0  0  0  0  0
  -10.2812   -1.9111   -4.0596 H   0  0  0  0  0  0  0  0  0  0  0  0
   -9.7689   -1.2302   -2.5136 H   0  0  0  0  0  0  0  0  0  0  0  0
   -9.0901   -2.7570   -3.0747 H   0  0  0  0  0  0  0  0  0  0  0  0
   -9.6961    0.1906   -5.2851 H   0  0  0  0  0  0  0  0  0  0  0  0
   -8.1050    0.9253   -5.1225 H   0  0  0  0  0  0  0  0  0  0  0  0
   -9.2373    0.9446   -3.7622 H   0  0  0  0  0  0  0  0  0  0  0  0
   -8.6173   -1.9373   -6.0498 H   0  0  0  0  0  0  0  0  0  0  0  0
   -7.4480   -2.7825   -5.0381 H   0  0  0  0  0  0  0  0  0  0  0  0
   -6.9964   -1.2738   -5.8291 H   0  0  0  0  0  0  0  0  0  0  0  0
    2.7363   -6.1285    2.8387 H   0  0  0  0  0  0  0  0  0  0  0  0
    2.7656   -5.0433    1.4481 H   0  0  0  0  0  0  0  0  0  0  0  0
    1.2831   -5.2440    2.3740 H   0  0  0  0  0  0  0  0  0  0  0  0
    2.7128   -5.1731    5.2157 H   0  0  0  0  0  0  0  0  0  0  0  0
    1.1788   -4.4242    4.8091 H   0  0  0  0  0  0  0  0  0  0  0  0
    2.4963   -3.4420    5.4553 H   0  0  0  0  0  0  0  0  0  0  0  0
    4.7312   -4.8528    3.8779 H   0  0  0  0  0  0  0  0  0  0  0  0
    4.6346   -3.1032    4.0598 H   0  0  0  0  0  0  0  0  0  0  0  0
    4.7630   -3.8193    2.4533 H   0  0  0  0  0  0  0  0  0  0  0  0
   -1.0203   -5.6699    4.2559 H   0  0  0  0  0  0  0  0  0  0  0  0
   -1.7343   -4.0881    4.5451 H   0  0  0  0  0  0  0  0  0  0  0  0
   -0.5237   -4.2865    3.2769 H   0  0  0  0  0  0  0  0  0  0  0  0
   -3.4905   -6.4581    4.0847 H   0  0  0  0  0  0  0  0  0  0  0  0
   -4.5087   -5.8493    2.7759 H   0  0  0  0  0  0  0  0  0  0  0  0
   -4.1111   -4.8044    4.1379 H   0  0  0  0  0  0  0  0  0  0  0  0
   -1.6017   -7.0411    2.3617 H   0  0  0  0  0  0  0  0  0  0  0  0
   -1.0995   -5.8016    1.2106 H   0  0  0  0  0  0  0  0  0  0  0  0
   -2.7103   -6.5130    1.1035 H   0  0  0  0  0  0  0  0  0  0  0  0
   -3.8785   -4.8832    0.3962 H   0  0  0  0  0  0  0  0  0  0  0  0
   -2.1318   -2.4135    3.3837 H   0  0  0  0  0  0  0  0  0  0  0  0
   -6.8225   -2.8954   -2.8367 H   0  0  0  0  0  0  0  0  0  0  0  0
   -7.1166    1.3424   -3.1638 H   0  0  0  0  0  0  0  0  0  0  0  0
   -3.7392    4.1163   -1.4034 H   0  0  0  0  0  0  0  0  0  0  0  0
   -0.3142    2.5255    0.5206 H   0  0  0  0  0  0  0  0  0  0  0  0
   -1.2577    2.8152    5.1287 H   0  0  0  0  0  0  0  0  0  0  0  0
    2.0569    5.2306    4.0468 H   0  0  0  0  0  0  0  0  0  0  0  0
    0.6485   -2.4423    4.2062 H   0  0  0  0  0  0  0  0  0  0  0  0
    3.4858   -2.7297    1.0668 H   0  0  0  0  0  0  0  0  0  0  0  0
    3.9239    4.7181   -0.3685 H   0  0  0  0  0  0  0  0  0  0  0  0
    4.1756    0.8285   -2.0658 H   0  0  0  0  0  0  0  0  0  0  0  0
   -1.8035   -3.3913    9.5526 C   0  0  0  0  0  0  0  0  0  0  0  0
   -1.8449   -1.9919    9.4439 C   0  0  0  0  0  0  0  0  0  0  0  0
   -2.2879   -1.3943    8.2099 C   0  0  0  0  0  0  0  0  0  0  0  0
   -2.7583   -2.2944    7.2183 C   0  0  0  0  0  0  0  0  0  0  0  0
   -2.6690   -3.6651    7.3812 C   0  0  0  0  0  0  0  0  0  0  0  0
   -2.1830   -4.2430    8.5387 C   0  0  0  0  0  0  0  0  0  0  0  0
   -2.3543    0.0287    7.9550 C   0  0  0  0  0  0  0  0  0  0  0  0
   -3.1585    0.4849    6.8468 C   0  0  0  0  0  0  0  0  0  0  0  0
   -3.6098   -0.4005    5.8457 C   0  0  0  0  0  0  0  0  0  0  0  0
   -3.4078   -1.8311    5.9973 C   0  0  0  0  0  0  0  0  0  0  0  0
   -1.6765    1.0498    8.7252 C   0  0  0  0  0  0  0  0  0  0  0  0
   -2.1730    2.3802    8.7229 C   0  0  0  0  0  0  0  0  0  0  0  0
   -3.1866    2.7962    7.7591 C   0  0  0  0  0  0  0  0  0  0  0  0
   -3.5115    1.8459    6.7028 C   0  0  0  0  0  0  0  0  0  0  0  0
   -4.1762    2.2870    5.5712 C   0  0  0  0  0  0  0  0  0  0  0  0
   -4.5458    1.4248    4.5506 C   0  0  0  0  0  0  0  0  0  0  0  0
   -4.2649    0.0774    4.7239 C   0  0  0  0  0  0  0  0  0  0  0  0
   -0.4540    0.8283    9.4404 C   0  0  0  0  0  0  0  0  0  0  0  0
    0.0321    1.8439   10.2745 C   0  0  0  0  0  0  0  0  0  0  0  0
   -0.5585    3.0846   10.3829 C   0  0  0  0  0  0  0  0  0  0  0  0
   -1.6495    3.3438    9.5686 C   0  0  0  0  0  0  0  0  0  0  0  0
   -1.4000   -1.2970   10.5564 O   0  0  0  0  0  0  0  0  0  0  0  0
    0.2696   -0.3413    9.3149 O   0  0  0  0  0  0  0  0  0  0  0  0
    0.0876   -1.2193   10.4858 B   0  0  0  0  0  0  0  0  0  0  0  0
    2.0367   -4.3404    9.8580 C   0  0  0  0  0  0  0  0  0  0  0  0
    1.8401   -2.9489    9.8143 C   0  0  0  0  0  0  0  0  0  0  0  0
    2.7709   -2.1154    9.0980 C   0  0  0  0  0  0  0  0  0  0  0  0
    3.5708   -2.8306    8.1553 C   0  0  0  0  0  0  0  0  0  0  0  0
    3.6892   -4.2102    8.1908 C   0  0  0  0  0  0  0  0  0  0  0  0
    2.9730   -4.9896    9.0808 C   0  0  0  0  0  0  0  0  0  0  0  0
    2.9756   -0.6761    9.2516 C   0  0  0  0  0  0  0  0  0  0  0  0
    3.6408   -0.0013    8.1561 C   0  0  0  0  0  0  0  0  0  0  0  0
    4.1089   -0.7036    7.0181 C   0  0  0  0  0  0  0  0  0  0  0  0
    2.7958    0.0986   10.4786 C   0  0  0  0  0  0  0  0  0  0  0  0
    3.5101    1.3344   10.6077 C   0  0  0  0  0  0  0  0  0  0  0  0
    3.8884    2.1104    9.4299 C   0  0  0  0  0  0  0  0  0  0  0  0
    3.9060    1.3925    8.1673 C   0  0  0  0  0  0  0  0  0  0  0  0
    4.3373    2.0431    7.0202 C   0  0  0  0  0  0  0  0  0  0  0  0
    4.6095    1.3549    5.8460 C   0  0  0  0  0  0  0  0  0  0  0  0
    4.5515   -0.0282    5.8941 C   0  0  0  0  0  0  0  0  0  0  0  0
    2.0050   -0.2198   11.6600 C   0  0  0  0  0  0  0  0  0  0  0  0
    2.4372    0.2676   12.9111 C   0  0  0  0  0  0  0  0  0  0  0  0
    3.3873    1.2642   13.0307 C   0  0  0  0  0  0  0  0  0  0  0  0
    3.8223    1.8572   11.8544 C   0  0  0  0  0  0  0  0  0  0  0  0
    0.7246   -0.6984   11.6780 O   0  0  0  0  0  0  0  0  0  0  0  0
    0.6563   -2.5522   10.3473 O   0  0  0  0  0  0  0  0  0  0  0  0
    4.2671   -2.1454    7.0786 C   0  0  0  0  0  0  0  0  0  0  0  0
    4.2015    3.2892    9.5124 O   0  0  0  0  0  0  0  0  0  0  0  0
    4.9556   -2.7500    6.2696 O   0  0  0  0  0  0  0  0  0  0  0  0
   -3.8220   -2.6255    5.1661 O   0  0  0  0  0  0  0  0  0  0  0  0
   -3.7029    3.9032    7.8059 O   0  0  0  0  0  0  0  0  0  0  0  0
   -1.9935   -5.7625    8.6209 C   0  0  0  0  0  0  0  0  0  0  0  0
   -1.7464   -6.2215   10.0700 C   0  0  0  0  0  0  0  0  0  0  0  0
   -0.7799   -6.1398    7.7563 C   0  0  0  0  0  0  0  0  0  0  0  0
   -3.2482   -6.4863    8.0967 C   0  0  0  0  0  0  0  0  0  0  0  0
    0.0142    4.1201   11.3598 C   0  0  0  0  0  0  0  0  0  0  0  0
   -0.7967    5.4287   11.3382 C   0  0  0  0  0  0  0  0  0  0  0  0
   -0.0395    3.5322   12.7803 C   0  0  0  0  0  0  0  0  0  0  0  0
    1.4729    4.4473   10.9894 C   0  0  0  0  0  0  0  0  0  0  0  0
   -5.1532    1.9836    3.2539 C   0  0  0  0  0  0  0  0  0  0  0  0
   -5.6992    0.8634    2.3470 C   0  0  0  0  0  0  0  0  0  0  0  0
   -4.0536    2.7388    2.4891 C   0  0  0  0  0  0  0  0  0  0  0  0
   -6.3114    2.9428    3.5808 C   0  0  0  0  0  0  0  0  0  0  0  0
    3.2036   -6.5063    9.1299 C   0  0  0  0  0  0  0  0  0  0  0  0
    2.9898   -7.1103    7.7296 C   0  0  0  0  0  0  0  0  0  0  0  0
    2.2418   -7.1969   10.1140 C   0  0  0  0  0  0  0  0  0  0  0  0
    4.6477   -6.7738    9.5886 C   0  0  0  0  0  0  0  0  0  0  0  0
    3.8037    1.7961   14.4081 C   0  0  0  0  0  0  0  0  0  0  0  0
    3.9726    0.6255   15.3959 C   0  0  0  0  0  0  0  0  0  0  0  0
    5.1474    2.5468   14.3264 C   0  0  0  0  0  0  0  0  0  0  0  0
    2.7239    2.7565   14.9285 C   0  0  0  0  0  0  0  0  0  0  0  0
    5.0533    2.0602    4.5586 C   0  0  0  0  0  0  0  0  0  0  0  0
    4.6571    3.5491    4.5849 C   0  0  0  0  0  0  0  0  0  0  0  0
    6.5773    1.9421    4.4105 C   0  0  0  0  0  0  0  0  0  0  0  0
    4.3663    1.4001    3.3475 C   0  0  0  0  0  0  0  0  0  0  0  0
    6.9185    2.4361    3.5014 H   0  0  0  0  0  0  0  0  0  0  0  0
    6.8832    0.8977    4.3630 H   0  0  0  0  0  0  0  0  0  0  0  0
    7.0841    2.4013    5.2584 H   0  0  0  0  0  0  0  0  0  0  0  0
    4.8082    4.0173    3.6121 H   0  0  0  0  0  0  0  0  0  0  0  0
    5.2416    4.1056    5.3158 H   0  0  0  0  0  0  0  0  0  0  0  0
    3.6051    3.6534    4.8404 H   0  0  0  0  0  0  0  0  0  0  0  0
    4.5770    1.9497    2.4310 H   0  0  0  0  0  0  0  0  0  0  0  0
    3.2874    1.3807    3.4911 H   0  0  0  0  0  0  0  0  0  0  0  0
    4.7008    0.3753    3.1966 H   0  0  0  0  0  0  0  0  0  0  0  0
    5.4915    2.8349   15.3195 H   0  0  0  0  0  0  0  0  0  0  0  0
    5.0590    3.4585   13.7374 H   0  0  0  0  0  0  0  0  0  0  0  0
    5.9149    1.9194   13.8744 H   0  0  0  0  0  0  0  0  0  0  0  0
    2.9897    3.1489   15.9097 H   0  0  0  0  0  0  0  0  0  0  0  0
    1.7631    2.2508   15.0173 H   0  0  0  0  0  0  0  0  0  0  0  0
    2.6016    3.6001   14.2502 H   0  0  0  0  0  0  0  0  0  0  0  0
    4.3352    0.9802   16.3604 H   0  0  0  0  0  0  0  0  0  0  0  0
    4.6891   -0.1006   15.0131 H   0  0  0  0  0  0  0  0  0  0  0  0
    3.0297    0.1101   15.5707 H   0  0  0  0  0  0  0  0  0  0  0  0
    0.3330    4.2464   13.5137 H   0  0  0  0  0  0  0  0  0  0  0  0
    0.5622    2.6277   12.8522 H   0  0  0  0  0  0  0  0  0  0  0  0
   -1.0626    3.2732   13.0501 H   0  0  0  0  0  0  0  0  0  0  0  0
   -0.3942    6.1445   12.0544 H   0  0  0  0  0  0  0  0  0  0  0  0
   -1.8386    5.2479   11.5999 H   0  0  0  0  0  0  0  0  0  0  0  0
   -0.7633    5.8931   10.3532 H   0  0  0  0  0  0  0  0  0  0  0  0
    1.9190    5.1201   11.7208 H   0  0  0  0  0  0  0  0  0  0  0  0
    1.5341    4.9298   10.0159 H   0  0  0  0  0  0  0  0  0  0  0  0
    2.0846    3.5495   10.9481 H   0  0  0  0  0  0  0  0  0  0  0  0
   -6.7790    3.3086    2.6672 H   0  0  0  0  0  0  0  0  0  0  0  0
   -5.9669    3.8092    4.1426 H   0  0  0  0  0  0  0  0  0  0  0  0
   -7.0742    2.4376    4.1719 H   0  0  0  0  0  0  0  0  0  0  0  0
   -4.4332    3.1522    1.5558 H   0  0  0  0  0  0  0  0  0  0  0  0
   -3.2336    2.0615    2.2530 H   0  0  0  0  0  0  0  0  0  0  0  0
   -3.6441    3.5537    3.0840 H   0  0  0  0  0  0  0  0  0  0  0  0
   -6.1570    1.2783    1.4494 H   0  0  0  0  0  0  0  0  0  0  0  0
   -6.4494    0.2673    2.8645 H   0  0  0  0  0  0  0  0  0  0  0  0
   -4.8975    0.2038    2.0223 H   0  0  0  0  0  0  0  0  0  0  0  0
    3.1015   -8.1939    7.7516 H   0  0  0  0  0  0  0  0  0  0  0  0
    3.7110   -6.7187    7.0142 H   0  0  0  0  0  0  0  0  0  0  0  0
    1.9932   -6.8822    7.3557 H   0  0  0  0  0  0  0  0  0  0  0  0
    2.4313   -8.2694   10.1513 H   0  0  0  0  0  0  0  0  0  0  0  0
    1.2051   -7.0574    9.8125 H   0  0  0  0  0  0  0  0  0  0  0  0
    2.3645   -6.8049   11.1230 H   0  0  0  0  0  0  0  0  0  0  0  0
    4.8493   -7.8433    9.6423 H   0  0  0  0  0  0  0  0  0  0  0  0
    4.8230   -6.3463   10.5753 H   0  0  0  0  0  0  0  0  0  0  0  0
    5.3663   -6.3311    8.9002 H   0  0  0  0  0  0  0  0  0  0  0  0
   -1.6587   -7.3063   10.1233 H   0  0  0  0  0  0  0  0  0  0  0  0
   -2.5688   -5.9204   10.7181 H   0  0  0  0  0  0  0  0  0  0  0  0
   -0.8251   -5.8002   10.4677 H   0  0  0  0  0  0  0  0  0  0  0  0
   -3.1495   -7.5654    8.2108 H   0  0  0  0  0  0  0  0  0  0  0  0
   -3.4158   -6.2846    7.0401 H   0  0  0  0  0  0  0  0  0  0  0  0
   -4.1337   -6.1686    8.6460 H   0  0  0  0  0  0  0  0  0  0  0  0
   -0.5771   -7.2089    7.8070 H   0  0  0  0  0  0  0  0  0  0  0  0
    0.1066   -5.6029    8.0908 H   0  0  0  0  0  0  0  0  0  0  0  0
   -0.9490   -5.8764    6.7134 H   0  0  0  0  0  0  0  0  0  0  0  0
   -3.0023   -4.2847    6.5692 H   0  0  0  0  0  0  0  0  0  0  0  0
   -1.4062   -3.7835   10.4691 H   0  0  0  0  0  0  0  0  0  0  0  0
   -4.4995   -0.6358    3.9542 H   0  0  0  0  0  0  0  0  0  0  0  0
   -4.3760    3.3397    5.4884 H   0  0  0  0  0  0  0  0  0  0  0  0
   -2.0934    4.3217    9.5413 H   0  0  0  0  0  0  0  0  0  0  0  0
    0.9193    1.6407   10.8376 H   0  0  0  0  0  0  0  0  0  0  0  0
    1.8944   -0.0576   13.7793 H   0  0  0  0  0  0  0  0  0  0  0  0
    4.4188    2.7502   11.8839 H   0  0  0  0  0  0  0  0  0  0  0  0
    1.3659   -4.9055   10.4760 H   0  0  0  0  0  0  0  0  0  0  0  0
    4.3604   -4.6726    7.4898 H   0  0  0  0  0  0  0  0  0  0  0  0
    4.4959    3.1043    7.0784 H   0  0  0  0  0  0  0  0  0  0  0  0
    4.8789   -0.6147    5.0550 H   0  0  0  0  0  0  0  0  0  0  0  0
  1  2  2  0  0  0  0
  1131  1  0  0  0  0
  2  3  1  0  0  0  0
  2 22  1  0  0  0  0
  3  4  2  0  0  0  0
  4  5  1  0  0  0  0
  5  6  2  0  0  0  0
  5130  1  0  0  0  0
  6 52  1  0  0  0  0
  6  1  1  0  0  0  0
  7  3  1  0  0  0  0
  7  8  1  0  0  0  0
  7 11  1  0  0  0  0
  8  9  2  0  0  0  0
  9 10  1  0  0  0  0
 10  4  1  0  0  0  0
 10 50  2  0  0  0  0
 11 12  2  0  0  0  0
 11 18  1  0  0  0  0
 13 14  1  0  0  0  0
 13 12  1  0  0  0  0
 13 51  2  0  0  0  0
 14  8  1  0  0  0  0
 14 15  2  0  0  0  0
 15 16  1  0  0  0  0
 15133  1  0  0  0  0
 16 60  1  0  0  0  0
 16 17  2  0  0  0  0
 17  9  1  0  0  0  0
 17132  1  0  0  0  0
 18 19  2  0  0  0  0
 18 23  1  0  0  0  0
 19 20  1  0  0  0  0
 19135  1  0  0  0  0
 20 56  1  0  0  0  0
 20 21  2  0  0  0  0
 21 12  1  0  0  0  0
 21134  1  0  0  0  0
 24 23  1  0  0  0  0
 24 22  1  0  0  0  0
 25 26  2  0  0  0  0
 25138  1  0  0  0  0
 26 27  1  0  0  0  0
 26 46  1  0  0  0  0
 27 28  2  0  0  0  0
 28 29  1  0  0  0  0
 28 47  1  0  0  0  0
 29 30  2  0  0  0  0
 29139  1  0  0  0  0
 30 64  1  0  0  0  0
 30 25  1  0  0  0  0
 31 27  1  0  0  0  0
 31 32  1  0  0  0  0
 32 33  2  0  0  0  0
 34 35  2  0  0  0  0
 34 41  1  0  0  0  0
 34 31  1  0  0  0  0
 36 37  1  0  0  0  0
 36 35  1  0  0  0  0
 36 48  2  0  0  0  0
 37 32  1  0  0  0  0
 37 38  2  0  0  0  0
 38 39  1  0  0  0  0
 38140  1  0  0  0  0
 39 72  1  0  0  0  0
 39 40  2  0  0  0  0
 40 33  1  0  0  0  0
 40141  1  0  0  0  0
 41 42  2  0  0  0  0
 41 45  1  0  0  0  0
 42 43  1  0  0  0  0
 42136  1  0  0  0  0
 43 68  1  0  0  0  0
 43 44  2  0  0  0  0
 44 35  1  0  0  0  0
 44137  1  0  0  0  0
 45 24  1  0  0  0  0
 46 24  1  0  0  0  0
 47 33  1  0  0  0  0
 47 49  2  0  0  0  0
 52 53  1  0  0  0  0
 52 54  1  0  0  0  0
 52 55  1  0  0  0  0
 53121  1  0  0  0  0
 53122  1  0  0  0  0
 53123  1  0  0  0  0
 54127  1  0  0  0  0
 54128  1  0  0  0  0
 54129  1  0  0  0  0
 55124  1  0  0  0  0
 55125  1  0  0  0  0
 55126  1  0  0  0  0
 56 57  1  0  0  0  0
 56 58  1  0  0  0  0
 56 59  1  0  0  0  0
 57 97  1  0  0  0  0
 57 98  1  0  0  0  0
 57 99  1  0  0  0  0
 58 94  1  0  0  0  0
 58 95  1  0  0  0  0
 58 96  1  0  0  0  0
 59100  1  0  0  0  0
 59101  1  0  0  0  0
 59102  1  0  0  0  0
 60 61  1  0  0  0  0
 60 62  1  0  0  0  0
 60 63  1  0  0  0  0
 61109  1  0  0  0  0
 61110  1  0  0  0  0
 61111  1  0  0  0  0
 62106  1  0  0  0  0
 62107  1  0  0  0  0
 62108  1  0  0  0  0
 63103  1  0  0  0  0
 63104  1  0  0  0  0
 63105  1  0  0  0  0
 64 65  1  0  0  0  0
 64 66  1  0  0  0  0
 64 67  1  0  0  0  0
 65112  1  0  0  0  0
 65113  1  0  0  0  0
 65114  1  0  0  0  0
 66115  1  0  0  0  0
 66116  1  0  0  0  0
 66117  1  0  0  0  0
 67118  1  0  0  0  0
 67119  1  0  0  0  0
 67120  1  0  0  0  0
 68 69  1  0  0  0  0
 68 70  1  0  0  0  0
 68 71  1  0  0  0  0
 69 91  1  0  0  0  0
 69 92  1  0  0  0  0
 69 93  1  0  0  0  0
 70 85  1  0  0  0  0
 70 86  1  0  0  0  0
 70 87  1  0  0  0  0
 71 88  1  0  0  0  0
 71 89  1  0  0  0  0
 71 90  1  0  0  0  0
 72 73  1  0  0  0  0
 72 74  1  0  0  0  0
 72 75  1  0  0  0  0
 73 79  1  0  0  0  0
 73 80  1  0  0  0  0
 73 81  1  0  0  0  0
 74 76  1  0  0  0  0
 74 77  1  0  0  0  0
 74 78  1  0  0  0  0
 75 82  1  0  0  0  0
 75 83  1  0  0  0  0
 75 84  1  0  0  0  0
142143  2  0  0  0  0
142272  1  0  0  0  0
143144  1  0  0  0  0
143163  1  0  0  0  0
144145  2  0  0  0  0
145146  1  0  0  0  0
146147  2  0  0  0  0
146271  1  0  0  0  0
147193  1  0  0  0  0
147142  1  0  0  0  0
148144  1  0  0  0  0
148149  1  0  0  0  0
148152  1  0  0  0  0
149150  2  0  0  0  0
150151  1  0  0  0  0
151145  1  0  0  0  0
151191  2  0  0  0  0
152153  2  0  0  0  0
152159  1  0  0  0  0
154155  1  0  0  0  0
154153  1  0  0  0  0
154192  2  0  0  0  0
155149  1  0  0  0  0
155156  2  0  0  0  0
156157  1  0  0  0  0
156274  1  0  0  0  0
157201  1  0  0  0  0
157158  2  0  0  0  0
158150  1  0  0  0  0
158273  1  0  0  0  0
159160  2  0  0  0  0
159164  1  0  0  0  0
160161  1  0  0  0  0
160276  1  0  0  0  0
161197  1  0  0  0  0
161162  2  0  0  0  0
162153  1  0  0  0  0
162275  1  0  0  0  0
165164  1  0  0  0  0
165163  1  0  0  0  0
166167  2  0  0  0  0
166279  1  0  0  0  0
167168  1  0  0  0  0
167187  1  0  0  0  0
168169  2  0  0  0  0
169170  1  0  0  0  0
169188  1  0  0  0  0
170171  2  0  0  0  0
170280  1  0  0  0  0
171205  1  0  0  0  0
171166  1  0  0  0  0
172168  1  0  0  0  0
172173  1  0  0  0  0
173174  2  0  0  0  0
175176  2  0  0  0  0
175182  1  0  0  0  0
175172  1  0  0  0  0
177178  1  0  0  0  0
177176  1  0  0  0  0
177189  2  0  0  0  0
178173  1  0  0  0  0
178179  2  0  0  0  0
179180  1  0  0  0  0
179281  1  0  0  0  0
180213  1  0  0  0  0
180181  2  0  0  0  0
181174  1  0  0  0  0
181282  1  0  0  0  0
182183  2  0  0  0  0
182186  1  0  0  0  0
183184  1  0  0  0  0
183277  1  0  0  0  0
184209  1  0  0  0  0
184185  2  0  0  0  0
185176  1  0  0  0  0
185278  1  0  0  0  0
186165  1  0  0  0  0
187165  1  0  0  0  0
188174  1  0  0  0  0
188190  2  0  0  0  0
193194  1  0  0  0  0
193195  1  0  0  0  0
193196  1  0  0  0  0
194262  1  0  0  0  0
194263  1  0  0  0  0
194264  1  0  0  0  0
195268  1  0  0  0  0
195269  1  0  0  0  0
195270  1  0  0  0  0
196265  1  0  0  0  0
196266  1  0  0  0  0
196267  1  0  0  0  0
197198  1  0  0  0  0
197199  1  0  0  0  0
197200  1  0  0  0  0
198238  1  0  0  0  0
198239  1  0  0  0  0
198240  1  0  0  0  0
199235  1  0  0  0  0
199236  1  0  0  0  0
199237  1  0  0  0  0
200241  1  0  0  0  0
200242  1  0  0  0  0
200243  1  0  0  0  0
201202  1  0  0  0  0
201203  1  0  0  0  0
201204  1  0  0  0  0
202250  1  0  0  0  0
202251  1  0  0  0  0
202252  1  0  0  0  0
203247  1  0  0  0  0
203248  1  0  0  0  0
203249  1  0  0  0  0
204244  1  0  0  0  0
204245  1  0  0  0  0
204246  1  0  0  0  0
205206  1  0  0  0  0
205207  1  0  0  0  0
205208  1  0  0  0  0
206253  1  0  0  0  0
206254  1  0  0  0  0
206255  1  0  0  0  0
207256  1  0  0  0  0
207257  1  0  0  0  0
207258  1  0  0  0  0
208259  1  0  0  0  0
208260  1  0  0  0  0
208261  1  0  0  0  0
209210  1  0  0  0  0
209211  1  0  0  0  0
209212  1  0  0  0  0
210232  1  0  0  0  0
210233  1  0  0  0  0
210234  1  0  0  0  0
211226  1  0  0  0  0
211227  1  0  0  0  0
211228  1  0  0  0  0
212229  1  0  0  0  0
212230  1  0  0  0  0
212231  1  0  0  0  0
213214  1  0  0  0  0
213215  1  0  0  0  0
213216  1  0  0  0  0
214220  1  0  0  0  0
214221  1  0  0  0  0
214222  1  0  0  0  0
215217  1  0  0  0  0
215218  1  0  0  0  0
215219  1  0  0  0  0
216223  1  0  0  0  0
216224  1  0  0  0  0
216225  1  0  0  0  0
M  CHG  1  24  -1
M  CHG  1 165  -1
M  END
