 energy: -20.616630572115 gnorm: 0.000932479621 xtb: 6.7.1 (edcfbbe)
          03042512493D

110118  0     0  0            999 V2000
   -3.0694    0.7268   -1.1908 C   0  0  0  0  0  0  0  0  0  0  0  0
   -2.4836   -0.4508   -0.7263 C   0  0  0  0  0  0  0  0  0  0  0  0
   -1.5349   -0.3509    0.3490 C   0  0  0  0  0  0  0  0  0  0  0  0
   -0.9485    0.9180    0.6185 C   0  0  0  0  0  0  0  0  0  0  0  0
   -1.5362    2.0579    0.0510 C   0  0  0  0  0  0  0  0  0  0  0  0
   -2.6263    1.9642   -0.7675 C   0  0  0  0  0  0  0  0  0  0  0  0
   -1.0561   -1.4756    1.0901 C   0  0  0  0  0  0  0  0  0  0  0  0
    0.1692   -1.3059    1.7449 C   0  0  0  0  0  0  0  0  0  0  0  0
    0.7377   -0.0070    1.8614 C   0  0  0  0  0  0  0  0  0  0  0  0
    0.1467    1.0972    1.3806 N   0  0  0  0  0  0  0  0  0  0  0  0
   -1.6882   -2.7511    1.2386 C   0  0  0  0  0  0  0  0  0  0  0  0
   -0.8849   -3.8322    1.7002 C   0  0  0  0  0  0  0  0  0  0  0  0
    0.3625   -3.6849    2.1905 N   0  0  0  0  0  0  0  0  0  0  0  0
    0.8444   -2.4346    2.2845 C   0  0  0  0  0  0  0  0  0  0  0  0
    2.0792   -2.2274    2.9136 C   0  0  0  0  0  0  0  0  0  0  0  0
    2.6113   -0.9678    3.0463 C   0  0  0  0  0  0  0  0  0  0  0  0
    1.9559    0.1249    2.5374 C   0  0  0  0  0  0  0  0  0  0  0  0
   -3.0989   -2.9688    1.0758 C   0  0  0  0  0  0  0  0  0  0  0  0
   -3.5655   -4.2832    1.0830 C   0  0  0  0  0  0  0  0  0  0  0  0
   -2.7369   -5.3508    1.3634 C   0  0  0  0  0  0  0  0  0  0  0  0
   -1.4322   -5.1261    1.6988 C   0  0  0  0  0  0  0  0  0  0  0  0
   -3.9496   -1.8760    0.9966 O   0  0  0  0  0  0  0  0  0  0  0  0
   -2.7201   -1.6935   -1.2936 O   0  0  0  0  0  0  0  0  0  0  0  0
   -1.1215    3.0277    0.2777 H   0  0  0  0  0  0  0  0  0  0  0  0
   -3.8924    0.6950   -1.8847 H   0  0  0  0  0  0  0  0  0  0  0  0
    2.3867    1.1058    2.6620 H   0  0  0  0  0  0  0  0  0  0  0  0
    2.6233   -3.0751    3.3007 H   0  0  0  0  0  0  0  0  0  0  0  0
   -0.8036   -5.9598    1.9727 H   0  0  0  0  0  0  0  0  0  0  0  0
   -4.6047   -4.4922    0.8925 H   0  0  0  0  0  0  0  0  0  0  0  0
   -5.3127   -2.1568    1.2017 C   0  0  0  0  0  0  0  0  0  0  0  0
   -3.4501   -1.6855   -2.4954 C   0  0  0  0  0  0  0  0  0  0  0  0
   -3.5222    3.5453   -1.3036 S   0  0  0  0  0  0  0  0  0  0  0  0
   -3.9563    3.6722    0.2062 F   0  0  0  0  0  0  0  0  0  0  0  0
   -2.1974    4.3337   -0.9656 F   0  0  0  0  0  0  0  0  0  0  0  0
   -4.2802    4.8627   -1.7271 F   0  0  0  0  0  0  0  0  0  0  0  0
   -4.7874    2.6503   -1.5965 F   0  0  0  0  0  0  0  0  0  0  0  0
   -2.9983    3.2673   -2.7660 F   0  0  0  0  0  0  0  0  0  0  0  0
   -3.4112   -7.1223    1.3096 S   0  0  0  0  0  0  0  0  0  0  0  0
   -3.7391   -6.9851    2.8530 F   0  0  0  0  0  0  0  0  0  0  0  0
   -4.8283   -6.5245    0.9506 F   0  0  0  0  0  0  0  0  0  0  0  0
   -3.9648   -8.6042    1.2518 F   0  0  0  0  0  0  0  0  0  0  0  0
   -3.0340   -7.1300   -0.2283 F   0  0  0  0  0  0  0  0  0  0  0  0
   -1.9567   -7.6248    1.6696 F   0  0  0  0  0  0  0  0  0  0  0  0
    4.2494   -0.7236    3.9596 S   0  0  0  0  0  0  0  0  0  0  0  0
    4.8131   -0.0362    2.6527 F   0  0  0  0  0  0  0  0  0  0  0  0
    4.6996   -2.1384    3.4179 F   0  0  0  0  0  0  0  0  0  0  0  0
    5.6023   -0.5116    4.7479 F   0  0  0  0  0  0  0  0  0  0  0  0
    3.6863    0.6691    4.4399 F   0  0  0  0  0  0  0  0  0  0  0  0
    3.5415   -1.4268    5.1786 F   0  0  0  0  0  0  0  0  0  0  0  0
   -3.4433   -2.7019   -2.8942 H   0  0  0  0  0  0  0  0  0  0  0  0
   -2.9705   -1.0148   -3.2113 H   0  0  0  0  0  0  0  0  0  0  0  0
   -4.4795   -1.3824   -2.2977 H   0  0  0  0  0  0  0  0  0  0  0  0
   -5.8300   -1.2090    1.3643 H   0  0  0  0  0  0  0  0  0  0  0  0
   -5.4190   -2.7672    2.1025 H   0  0  0  0  0  0  0  0  0  0  0  0
   -5.7260   -2.6601    0.3262 H   0  0  0  0  0  0  0  0  0  0  0  0
   -0.9963    4.1010    3.4794 C   0  0  0  0  0  0  0  0  0  0  0  0
   -1.1995    2.7879    3.8981 C   0  0  0  0  0  0  0  0  0  0  0  0
   -0.3356    2.2543    4.9133 C   0  0  0  0  0  0  0  0  0  0  0  0
    0.7968    3.0131    5.3199 C   0  0  0  0  0  0  0  0  0  0  0  0
    0.9359    4.3261    4.8430 C   0  0  0  0  0  0  0  0  0  0  0  0
    0.0502    4.8641    3.9539 C   0  0  0  0  0  0  0  0  0  0  0  0
   -0.4895    0.9512    5.4799 C   0  0  0  0  0  0  0  0  0  0  0  0
    0.6215    0.4130    6.1416 C   0  0  0  0  0  0  0  0  0  0  0  0
    1.7177    1.2503    6.4801 C   0  0  0  0  0  0  0  0  0  0  0  0
    1.7754    2.5430    6.1222 N   0  0  0  0  0  0  0  0  0  0  0  0
   -1.6620    0.1293    5.4643 C   0  0  0  0  0  0  0  0  0  0  0  0
   -1.4899   -1.2705    5.6724 C   0  0  0  0  0  0  0  0  0  0  0  0
   -0.3520   -1.8124    6.1570 N   0  0  0  0  0  0  0  0  0  0  0  0
    0.6249   -0.9593    6.5164 C   0  0  0  0  0  0  0  0  0  0  0  0
    1.6967   -1.4294    7.2887 C   0  0  0  0  0  0  0  0  0  0  0  0
    2.7249   -0.6027    7.6791 C   0  0  0  0  0  0  0  0  0  0  0  0
    2.7483    0.7084    7.2621 C   0  0  0  0  0  0  0  0  0  0  0  0
   -2.9984    0.6567    5.4277 C   0  0  0  0  0  0  0  0  0  0  0  0
   -4.0440   -0.2372    5.2111 C   0  0  0  0  0  0  0  0  0  0  0  0
   -3.8321   -1.6001    5.1871 C   0  0  0  0  0  0  0  0  0  0  0  0
   -2.5951   -2.1140    5.4607 C   0  0  0  0  0  0  0  0  0  0  0  0
   -3.2052    2.0063    5.6906 O   0  0  0  0  0  0  0  0  0  0  0  0
   -2.1586    1.9807    3.2974 O   0  0  0  0  0  0  0  0  0  0  0  0
    1.7778    4.9145    5.1753 H   0  0  0  0  0  0  0  0  0  0  0  0
   -1.6375    4.5354    2.7311 H   0  0  0  0  0  0  0  0  0  0  0  0
    3.5787    1.3396    7.5422 H   0  0  0  0  0  0  0  0  0  0  0  0
    1.7051   -2.4639    7.5968 H   0  0  0  0  0  0  0  0  0  0  0  0
   -2.4717   -3.1822    5.5477 H   0  0  0  0  0  0  0  0  0  0  0  0
   -5.0474    0.1215    5.0553 H   0  0  0  0  0  0  0  0  0  0  0  0
   -4.4862    2.3343    6.1767 C   0  0  0  0  0  0  0  0  0  0  0  0
   -3.2652    2.6596    2.7472 C   0  0  0  0  0  0  0  0  0  0  0  0
    0.2805    6.6444    3.3445 S   0  0  0  0  0  0  0  0  0  0  0  0
    1.5848    6.7199    4.2343 F   0  0  0  0  0  0  0  0  0  0  0  0
    1.1280    6.0394    2.1511 F   0  0  0  0  0  0  0  0  0  0  0  0
    0.4795    8.1293    2.8354 F   0  0  0  0  0  0  0  0  0  0  0  0
   -0.5902    7.1024    4.5848 F   0  0  0  0  0  0  0  0  0  0  0  0
   -1.0379    6.4731    2.4908 F   0  0  0  0  0  0  0  0  0  0  0  0
   -5.2857   -2.7468    4.8005 S   0  0  0  0  0  0  0  0  0  0  0  0
   -6.0796   -2.0251    5.9550 F   0  0  0  0  0  0  0  0  0  0  0  0
   -5.7808   -1.6531    3.7860 F   0  0  0  0  0  0  0  0  0  0  0  0
   -6.4902   -3.6907    4.4296 F   0  0  0  0  0  0  0  0  0  0  0  0
   -4.3801   -3.3648    3.6759 F   0  0  0  0  0  0  0  0  0  0  0  0
   -4.6839   -3.7679    5.8394 F   0  0  0  0  0  0  0  0  0  0  0  0
    4.0941   -1.2711    8.8104 S   0  0  0  0  0  0  0  0  0  0  0  0
    4.7405    0.1727    8.7877 F   0  0  0  0  0  0  0  0  0  0  0  0
    4.9502   -1.6736    7.5362 F   0  0  0  0  0  0  0  0  0  0  0  0
    5.2138   -1.8167    9.7914 F   0  0  0  0  0  0  0  0  0  0  0  0
    3.1702   -0.8366   10.0245 F   0  0  0  0  0  0  0  0  0  0  0  0
    3.3720   -2.6778    8.7664 F   0  0  0  0  0  0  0  0  0  0  0  0
   -4.0483    1.9274    2.5447 H   0  0  0  0  0  0  0  0  0  0  0  0
   -2.9808    3.1359    1.8103 H   0  0  0  0  0  0  0  0  0  0  0  0
   -3.6331    3.3988    3.4606 H   0  0  0  0  0  0  0  0  0  0  0  0
   -4.4464    3.3553    6.5611 H   0  0  0  0  0  0  0  0  0  0  0  0
   -4.7539    1.6548    6.9884 H   0  0  0  0  0  0  0  0  0  0  0  0
   -5.2170    2.2812    5.3690 H   0  0  0  0  0  0  0  0  0  0  0  0
  1  2  2  0  0  0  0
  1 25  1  0  0  0  0
  2  3  1  0  0  0  0
  2 23  1  0  0  0  0
  3  4  2  0  0  0  0
  3  7  1  0  0  0  0
  4  5  1  0  0  0  0
  5  6  2  0  0  0  0
  5 24  1  0  0  0  0
  6 32  1  0  0  0  0
  6  1  1  0  0  0  0
  7 11  2  0  0  0  0
  8  7  1  0  0  0  0
  8  9  1  0  0  0  0
  9 10  2  0  0  0  0
 10  4  1  0  0  0  0
 11 12  1  0  0  0  0
 11 18  1  0  0  0  0
 12 13  2  0  0  0  0
 13 14  1  0  0  0  0
 14  8  1  0  0  0  0
 14 15  2  0  0  0  0
 15 16  1  0  0  0  0
 15 27  1  0  0  0  0
 16 44  1  0  0  0  0
 16 17  2  0  0  0  0
 17  9  1  0  0  0  0
 17 26  1  0  0  0  0
 18 19  2  0  0  0  0
 19 20  1  0  0  0  0
 19 29  1  0  0  0  0
 20 38  1  0  0  0  0
 20 21  2  0  0  0  0
 21 12  1  0  0  0  0
 21 28  1  0  0  0  0
 22 30  1  0  0  0  0
 22 18  1  0  0  0  0
 23 31  1  0  0  0  0
 30 53  1  0  0  0  0
 30 54  1  0  0  0  0
 30 55  1  0  0  0  0
 31 50  1  0  0  0  0
 31 51  1  0  0  0  0
 31 52  1  0  0  0  0
 32 33  1  0  0  0  0
 32 34  1  0  0  0  0
 32 35  1  0  0  0  0
 32 36  1  0  0  0  0
 32 37  1  0  0  0  0
 38 39  1  0  0  0  0
 38 40  1  0  0  0  0
 38 41  1  0  0  0  0
 38 42  1  0  0  0  0
 38 43  1  0  0  0  0
 44 45  1  0  0  0  0
 44 46  1  0  0  0  0
 44 47  1  0  0  0  0
 44 48  1  0  0  0  0
 44 49  1  0  0  0  0
 56 57  2  0  0  0  0
 56 80  1  0  0  0  0
 57 58  1  0  0  0  0
 57 78  1  0  0  0  0
 58 59  2  0  0  0  0
 58 62  1  0  0  0  0
 59 60  1  0  0  0  0
 60 61  2  0  0  0  0
 60 79  1  0  0  0  0
 61 87  1  0  0  0  0
 61 56  1  0  0  0  0
 62 66  2  0  0  0  0
 63 62  1  0  0  0  0
 63 64  1  0  0  0  0
 64 65  2  0  0  0  0
 65 59  1  0  0  0  0
 66 67  1  0  0  0  0
 66 73  1  0  0  0  0
 67 68  2  0  0  0  0
 68 69  1  0  0  0  0
 69 63  1  0  0  0  0
 69 70  2  0  0  0  0
 70 71  1  0  0  0  0
 70 82  1  0  0  0  0
 71 99  1  0  0  0  0
 71 72  2  0  0  0  0
 72 64  1  0  0  0  0
 72 81  1  0  0  0  0
 73 74  2  0  0  0  0
 74 75  1  0  0  0  0
 74 84  1  0  0  0  0
 75 93  1  0  0  0  0
 75 76  2  0  0  0  0
 76 67  1  0  0  0  0
 76 83  1  0  0  0  0
 77 85  1  0  0  0  0
 77 73  1  0  0  0  0
 78 86  1  0  0  0  0
 85108  1  0  0  0  0
 85109  1  0  0  0  0
 85110  1  0  0  0  0
 86105  1  0  0  0  0
 86106  1  0  0  0  0
 86107  1  0  0  0  0
 87 88  1  0  0  0  0
 87 89  1  0  0  0  0
 87 90  1  0  0  0  0
 87 91  1  0  0  0  0
 87 92  1  0  0  0  0
 93 94  1  0  0  0  0
 93 95  1  0  0  0  0
 93 96  1  0  0  0  0
 93 97  1  0  0  0  0
 93 98  1  0  0  0  0
 99100  1  0  0  0  0
 99101  1  0  0  0  0
 99102  1  0  0  0  0
 99103  1  0  0  0  0
 99104  1  0  0  0  0
M  END
