 energy: -292.194536000159 gnorm: 0.000096636340 xtb: 6.7.1 (edcfbbe)
          03042512513D

110118  0     0  0            999 V2000
   -2.5863    1.1113   -1.1193 C   0  0  0  0  0  0  0  0  0  0  0  0
   -2.1930   -0.0697   -0.5037 C   0  0  0  0  0  0  0  0  0  0  0  0
   -1.3227    0.0026    0.6210 C   0  0  0  0  0  0  0  0  0  0  0  0
   -0.6045    1.2196    0.8547 C   0  0  0  0  0  0  0  0  0  0  0  0
   -1.0372    2.4142    0.2180 C   0  0  0  0  0  0  0  0  0  0  0  0
   -2.0479    2.3129   -0.6795 C   0  0  0  0  0  0  0  0  0  0  0  0
   -1.0323   -1.0907    1.4952 C   0  0  0  0  0  0  0  0  0  0  0  0
    0.2116   -1.0378    2.1511 C   0  0  0  0  0  0  0  0  0  0  0  0
    0.9658    0.1727    2.1453 C   0  0  0  0  0  0  0  0  0  0  0  0
    0.4728    1.2949    1.6323 N   0  0  0  0  0  0  0  0  0  0  0  0
   -1.8425   -2.2455    1.7264 C   0  0  0  0  0  0  0  0  0  0  0  0
   -1.1778   -3.3948    2.2727 C   0  0  0  0  0  0  0  0  0  0  0  0
    0.0636   -3.3603    2.7497 N   0  0  0  0  0  0  0  0  0  0  0  0
    0.7346   -2.2168    2.7613 C   0  0  0  0  0  0  0  0  0  0  0  0
    2.0542   -2.1833    3.2787 C   0  0  0  0  0  0  0  0  0  0  0  0
    2.7602   -1.0096    3.2043 C   0  0  0  0  0  0  0  0  0  0  0  0
    2.2643    0.1702    2.7090 C   0  0  0  0  0  0  0  0  0  0  0  0
   -3.2442   -2.3162    1.4950 C   0  0  0  0  0  0  0  0  0  0  0  0
   -3.8729   -3.5527    1.5462 C   0  0  0  0  0  0  0  0  0  0  0  0
   -3.1474   -4.6749    1.9108 C   0  0  0  0  0  0  0  0  0  0  0  0
   -1.8547   -4.6431    2.3146 C   0  0  0  0  0  0  0  0  0  0  0  0
   -3.9001   -1.1671    1.2818 O   0  0  0  0  0  0  0  0  0  0  0  0
   -2.5364   -1.2869   -0.9366 O   0  0  0  0  0  0  0  0  0  0  0  0
   -0.5533    3.3470    0.4451 H   0  0  0  0  0  0  0  0  0  0  0  0
   -3.3015    1.1290   -1.9218 H   0  0  0  0  0  0  0  0  0  0  0  0
    2.8544    1.0698    2.6816 H   0  0  0  0  0  0  0  0  0  0  0  0
    2.4879   -3.0849    3.6751 H   0  0  0  0  0  0  0  0  0  0  0  0
   -1.3357   -5.5140    2.6730 H   0  0  0  0  0  0  0  0  0  0  0  0
   -4.9214   -3.6682    1.3412 H   0  0  0  0  0  0  0  0  0  0  0  0
   -5.2923   -1.2125    0.9994 C   0  0  0  0  0  0  0  0  0  0  0  0
   -3.2934   -1.4113   -2.1271 C   0  0  0  0  0  0  0  0  0  0  0  0
   -2.8376    3.8625   -1.2937 S   0  0  0  0  0  0  0  0  0  0  0  0
   -2.9876    4.4251    0.2648 F   0  0  0  0  0  0  0  0  0  0  0  0
   -1.4155    4.6431   -1.5146 F   0  0  0  0  0  0  0  0  0  0  0  0
   -3.5953    5.1870   -1.7913 F   0  0  0  0  0  0  0  0  0  0  0  0
   -4.3566    3.1676   -1.1143 F   0  0  0  0  0  0  0  0  0  0  0  0
   -2.8234    3.3486   -2.8740 F   0  0  0  0  0  0  0  0  0  0  0  0
   -4.0520   -6.2804    1.8550 S   0  0  0  0  0  0  0  0  0  0  0  0
   -3.4875   -6.8060    3.3037 F   0  0  0  0  0  0  0  0  0  0  0  0
   -5.4291   -5.6685    2.5210 F   0  0  0  0  0  0  0  0  0  0  0  0
   -4.8313   -7.6856    1.7173 F   0  0  0  0  0  0  0  0  0  0  0  0
   -4.6612   -5.8975    0.3448 F   0  0  0  0  0  0  0  0  0  0  0  0
   -2.7619   -7.0180    1.1104 F   0  0  0  0  0  0  0  0  0  0  0  0
    4.5328   -1.0328    3.7377 S   0  0  0  0  0  0  0  0  0  0  0  0
    5.0181   -0.2039    2.3878 F   0  0  0  0  0  0  0  0  0  0  0  0
    4.8149   -2.4650    2.9602 F   0  0  0  0  0  0  0  0  0  0  0  0
    6.0574   -1.0507    4.2123 F   0  0  0  0  0  0  0  0  0  0  0  0
    4.3500    0.4082    4.5464 F   0  0  0  0  0  0  0  0  0  0  0  0
    4.1316   -1.8582    5.1206 F   0  0  0  0  0  0  0  0  0  0  0  0
   -3.4030   -2.4826   -2.2867 H   0  0  0  0  0  0  0  0  0  0  0  0
   -2.7681   -0.9650   -2.9749 H   0  0  0  0  0  0  0  0  0  0  0  0
   -4.2791   -0.9511   -2.0260 H   0  0  0  0  0  0  0  0  0  0  0  0
   -5.5775   -0.1841    0.7808 H   0  0  0  0  0  0  0  0  0  0  0  0
   -5.8543   -1.5853    1.8569 H   0  0  0  0  0  0  0  0  0  0  0  0
   -5.4967   -1.8398    0.1293 H   0  0  0  0  0  0  0  0  0  0  0  0
   -1.5046    3.6366    3.1866 C   0  0  0  0  0  0  0  0  0  0  0  0
   -1.5574    2.3429    3.6873 C   0  0  0  0  0  0  0  0  0  0  0  0
   -0.5824    1.9152    4.6298 C   0  0  0  0  0  0  0  0  0  0  0  0
    0.5286    2.7779    4.9091 C   0  0  0  0  0  0  0  0  0  0  0  0
    0.5505    4.0953    4.3806 C   0  0  0  0  0  0  0  0  0  0  0  0
   -0.4618    4.4685    3.5610 C   0  0  0  0  0  0  0  0  0  0  0  0
   -0.5787    0.6387    5.2772 C   0  0  0  0  0  0  0  0  0  0  0  0
    0.6334    0.2161    5.8524 C   0  0  0  0  0  0  0  0  0  0  0  0
    1.6880    1.1571    6.0508 C   0  0  0  0  0  0  0  0  0  0  0  0
    1.5804    2.4100    5.6373 N   0  0  0  0  0  0  0  0  0  0  0  0
   -1.6825   -0.2626    5.4217 C   0  0  0  0  0  0  0  0  0  0  0  0
   -1.3566   -1.6379    5.6500 C   0  0  0  0  0  0  0  0  0  0  0  0
   -0.1464   -2.0474    6.0220 N   0  0  0  0  0  0  0  0  0  0  0  0
    0.7881   -1.1382    6.2759 C   0  0  0  0  0  0  0  0  0  0  0  0
    1.9720   -1.5109    6.9568 C   0  0  0  0  0  0  0  0  0  0  0  0
    2.9257   -0.5527    7.1980 C   0  0  0  0  0  0  0  0  0  0  0  0
    2.8396    0.7474    6.7719 C   0  0  0  0  0  0  0  0  0  0  0  0
   -3.0475    0.1305    5.4928 C   0  0  0  0  0  0  0  0  0  0  0  0
   -4.0315   -0.8496    5.4488 C   0  0  0  0  0  0  0  0  0  0  0  0
   -3.6572   -2.1851    5.4426 C   0  0  0  0  0  0  0  0  0  0  0  0
   -2.3812   -2.6195    5.5780 C   0  0  0  0  0  0  0  0  0  0  0  0
   -3.3039    1.4286    5.6923 O   0  0  0  0  0  0  0  0  0  0  0  0
   -2.4549    1.4379    3.2647 O   0  0  0  0  0  0  0  0  0  0  0  0
    1.3799    4.7381    4.6168 H   0  0  0  0  0  0  0  0  0  0  0  0
   -2.2330    4.0048    2.4865 H   0  0  0  0  0  0  0  0  0  0  0  0
    3.6184    1.4650    6.9636 H   0  0  0  0  0  0  0  0  0  0  0  0
    2.0946   -2.5268    7.2898 H   0  0  0  0  0  0  0  0  0  0  0  0
   -2.1235   -3.6566    5.6940 H   0  0  0  0  0  0  0  0  0  0  0  0
   -5.0771   -0.6019    5.4436 H   0  0  0  0  0  0  0  0  0  0  0  0
   -4.6256    1.8322    6.0030 C   0  0  0  0  0  0  0  0  0  0  0  0
   -3.6071    1.8829    2.5658 C   0  0  0  0  0  0  0  0  0  0  0  0
   -0.4378    6.1451    2.7861 S   0  0  0  0  0  0  0  0  0  0  0  0
    1.2066    6.1209    2.6053 F   0  0  0  0  0  0  0  0  0  0  0  0
   -0.5962    5.4937    1.2702 F   0  0  0  0  0  0  0  0  0  0  0  0
   -0.4247    7.6004    2.1040 F   0  0  0  0  0  0  0  0  0  0  0  0
   -0.2553    6.8948    4.2534 F   0  0  0  0  0  0  0  0  0  0  0  0
   -2.0820    6.3056    2.9193 F   0  0  0  0  0  0  0  0  0  0  0  0
   -5.0038   -3.4419    5.3149 S   0  0  0  0  0  0  0  0  0  0  0  0
   -6.0822   -2.5126    6.1830 F   0  0  0  0  0  0  0  0  0  0  0  0
   -5.5535   -2.7122    3.9015 F   0  0  0  0  0  0  0  0  0  0  0  0
   -6.1837   -4.5066    5.1425 F   0  0  0  0  0  0  0  0  0  0  0  0
   -4.0327   -4.4361    4.4086 F   0  0  0  0  0  0  0  0  0  0  0  0
   -4.5464   -4.2154    6.6940 F   0  0  0  0  0  0  0  0  0  0  0  0
    4.4073   -1.0431    8.1950 S   0  0  0  0  0  0  0  0  0  0  0  0
    4.4544    0.4437    8.9337 F   0  0  0  0  0  0  0  0  0  0  0  0
    5.4765   -0.5078    7.0740 F   0  0  0  0  0  0  0  0  0  0  0  0
    5.6625   -1.4421    9.1261 F   0  0  0  0  0  0  0  0  0  0  0  0
    3.4187   -1.5815    9.4223 F   0  0  0  0  0  0  0  0  0  0  0  0
    4.4558   -2.5797    7.6141 F   0  0  0  0  0  0  0  0  0  0  0  0
   -4.2386    1.0013    2.4860 H   0  0  0  0  0  0  0  0  0  0  0  0
   -3.3665    2.2512    1.5683 H   0  0  0  0  0  0  0  0  0  0  0  0
   -4.1178    2.6708    3.1230 H   0  0  0  0  0  0  0  0  0  0  0  0
   -4.5569    2.8969    6.2193 H   0  0  0  0  0  0  0  0  0  0  0  0
   -5.0008    1.3025    6.8820 H   0  0  0  0  0  0  0  0  0  0  0  0
   -5.3058    1.6725    5.1632 H   0  0  0  0  0  0  0  0  0  0  0  0
  1  2  2  0  0  0  0
  1 25  1  0  0  0  0
  2  3  1  0  0  0  0
  2 23  1  0  0  0  0
  3  4  2  0  0  0  0
  3  7  1  0  0  0  0
  4  5  1  0  0  0  0
  5  6  2  0  0  0  0
  5 24  1  0  0  0  0
  6 32  1  0  0  0  0
  6  1  1  0  0  0  0
  7 11  2  0  0  0  0
  8  7  1  0  0  0  0
  8  9  1  0  0  0  0
  9 10  2  0  0  0  0
 10  4  1  0  0  0  0
 11 12  1  0  0  0  0
 11 18  1  0  0  0  0
 12 13  2  0  0  0  0
 13 14  1  0  0  0  0
 14  8  1  0  0  0  0
 14 15  2  0  0  0  0
 15 16  1  0  0  0  0
 15 27  1  0  0  0  0
 16 44  1  0  0  0  0
 16 17  2  0  0  0  0
 17  9  1  0  0  0  0
 17 26  1  0  0  0  0
 18 19  2  0  0  0  0
 19 20  1  0  0  0  0
 19 29  1  0  0  0  0
 20 38  1  0  0  0  0
 20 21  2  0  0  0  0
 21 12  1  0  0  0  0
 21 28  1  0  0  0  0
 22 30  1  0  0  0  0
 22 18  1  0  0  0  0
 23 31  1  0  0  0  0
 30 53  1  0  0  0  0
 30 54  1  0  0  0  0
 30 55  1  0  0  0  0
 31 50  1  0  0  0  0
 31 51  1  0  0  0  0
 31 52  1  0  0  0  0
 32 33  1  0  0  0  0
 32 34  1  0  0  0  0
 32 35  1  0  0  0  0
 32 36  1  0  0  0  0
 32 37  1  0  0  0  0
 38 39  1  0  0  0  0
 38 40  1  0  0  0  0
 38 41  1  0  0  0  0
 38 42  1  0  0  0  0
 38 43  1  0  0  0  0
 44 45  1  0  0  0  0
 44 46  1  0  0  0  0
 44 47  1  0  0  0  0
 44 48  1  0  0  0  0
 44 49  1  0  0  0  0
 56 57  2  0  0  0  0
 56 80  1  0  0  0  0
 57 58  1  0  0  0  0
 57 78  1  0  0  0  0
 58 59  2  0  0  0  0
 58 62  1  0  0  0  0
 59 60  1  0  0  0  0
 60 61  2  0  0  0  0
 60 79  1  0  0  0  0
 61 87  1  0  0  0  0
 61 56  1  0  0  0  0
 62 66  2  0  0  0  0
 63 62  1  0  0  0  0
 63 64  1  0  0  0  0
 64 65  2  0  0  0  0
 65 59  1  0  0  0  0
 66 67  1  0  0  0  0
 66 73  1  0  0  0  0
 67 68  2  0  0  0  0
 68 69  1  0  0  0  0
 69 63  1  0  0  0  0
 69 70  2  0  0  0  0
 70 71  1  0  0  0  0
 70 82  1  0  0  0  0
 71 99  1  0  0  0  0
 71 72  2  0  0  0  0
 72 64  1  0  0  0  0
 72 81  1  0  0  0  0
 73 74  2  0  0  0  0
 74 75  1  0  0  0  0
 74 84  1  0  0  0  0
 75 93  1  0  0  0  0
 75 76  2  0  0  0  0
 76 67  1  0  0  0  0
 76 83  1  0  0  0  0
 77 85  1  0  0  0  0
 77 73  1  0  0  0  0
 78 86  1  0  0  0  0
 85108  1  0  0  0  0
 85109  1  0  0  0  0
 85110  1  0  0  0  0
 86105  1  0  0  0  0
 86106  1  0  0  0  0
 86107  1  0  0  0  0
 87 88  1  0  0  0  0
 87 89  1  0  0  0  0
 87 90  1  0  0  0  0
 87 91  1  0  0  0  0
 87 92  1  0  0  0  0
 93 94  1  0  0  0  0
 93 95  1  0  0  0  0
 93 96  1  0  0  0  0
 93 97  1  0  0  0  0
 93 98  1  0  0  0  0
 99100  1  0  0  0  0
 99101  1  0  0  0  0
 99102  1  0  0  0  0
 99103  1  0  0  0  0
 99104  1  0  0  0  0
M  END
