 xtb: 6.7.1 (edcfbbe)
          12102413413D

 95106  0     0  0            999 V2000
    1.3096    3.4299    0.1540 C   0  0  0  0  0  0  0  0  0  0  0  0
    1.5618    2.0796    0.4279 C   0  0  0  0  0  0  0  0  0  0  0  0
    2.6785    1.4680   -0.2412 C   0  0  0  0  0  0  0  0  0  0  0  0
    3.3435    2.2366   -1.2696 C   0  0  0  0  0  0  0  0  0  0  0  0
    2.8413    3.4970   -1.6928 C   0  0  0  0  0  0  0  0  0  0  0  0
    1.8804    4.0624   -0.9287 C   0  0  0  0  0  0  0  0  0  0  0  0
    3.3375    0.2290    0.0915 C   0  0  0  0  0  0  0  0  0  0  0  0
    4.6464    0.0165   -0.3908 C   0  0  0  0  0  0  0  0  0  0  0  0
    5.1613    0.8442   -1.4263 C   0  0  0  0  0  0  0  0  0  0  0  0
    4.4693    1.8786   -1.8822 N   0  0  0  0  0  0  0  0  0  0  0  0
    2.8727   -0.7644    1.0041 C   0  0  0  0  0  0  0  0  0  0  0  0
    3.8427   -1.5827    1.6760 C   0  0  0  0  0  0  0  0  0  0  0  0
    5.0892   -1.7123    1.2380 N   0  0  0  0  0  0  0  0  0  0  0  0
    5.4632   -1.0147    0.1692 C   0  0  0  0  0  0  0  0  0  0  0  0
    6.7525   -1.2336   -0.3710 C   0  0  0  0  0  0  0  0  0  0  0  0
    7.1696   -0.4503   -1.4157 C   0  0  0  0  0  0  0  0  0  0  0  0
    6.4415    0.5687   -1.9679 C   0  0  0  0  0  0  0  0  0  0  0  0
    1.5069   -0.9519    1.2992 C   0  0  0  0  0  0  0  0  0  0  0  0
    1.2017   -1.4744    2.5541 C   0  0  0  0  0  0  0  0  0  0  0  0
    2.1808   -2.1205    3.2829 C   0  0  0  0  0  0  0  0  0  0  0  0
    3.4564   -2.2905    2.8458 C   0  0  0  0  0  0  0  0  0  0  0  0
    0.7266    1.5069    1.3124 O   0  0  0  0  0  0  0  0  0  0  0  0
    0.5977   -0.6226    0.3848 O   0  0  0  0  0  0  0  0  0  0  0  0
   -1.8333   -2.1626    1.7640 C   0  0  0  0  0  0  0  0  0  0  0  0
   -2.0264   -1.0046    1.0005 C   0  0  0  0  0  0  0  0  0  0  0  0
   -2.8254   -1.1235   -0.1883 C   0  0  0  0  0  0  0  0  0  0  0  0
   -3.2270   -2.4516   -0.5943 C   0  0  0  0  0  0  0  0  0  0  0  0
   -2.7448   -3.6076    0.0772 C   0  0  0  0  0  0  0  0  0  0  0  0
   -2.1133   -3.4123    1.2561 C   0  0  0  0  0  0  0  0  0  0  0  0
   -3.4232   -0.0601   -0.9567 C   0  0  0  0  0  0  0  0  0  0  0  0
   -4.5054   -0.3784   -1.8045 C   0  0  0  0  0  0  0  0  0  0  0  0
   -4.7742   -1.7367   -2.1300 C   0  0  0  0  0  0  0  0  0  0  0  0
   -4.0823   -2.7226   -1.5769 N   0  0  0  0  0  0  0  0  0  0  0  0
   -3.1421    1.3353   -0.8474 C   0  0  0  0  0  0  0  0  0  0  0  0
   -4.1765    2.2672   -1.2002 C   0  0  0  0  0  0  0  0  0  0  0  0
   -5.2263    1.9229   -1.9367 N   0  0  0  0  0  0  0  0  0  0  0  0
   -5.3440    0.6564   -2.3239 C   0  0  0  0  0  0  0  0  0  0  0  0
   -6.3936    0.3080   -3.2067 C   0  0  0  0  0  0  0  0  0  0  0  0
   -6.5635   -1.0111   -3.5378 C   0  0  0  0  0  0  0  0  0  0  0  0
   -5.8081   -2.0427   -3.0494 C   0  0  0  0  0  0  0  0  0  0  0  0
   -1.9069    1.8408   -0.3925 C   0  0  0  0  0  0  0  0  0  0  0  0
   -1.9137    3.1103    0.1805 C   0  0  0  0  0  0  0  0  0  0  0  0
   -2.9937    3.9491   -0.0115 C   0  0  0  0  0  0  0  0  0  0  0  0
   -4.0755    3.6152   -0.7633 C   0  0  0  0  0  0  0  0  0  0  0  0
   -1.4454    0.1100    1.4789 O   0  0  0  0  0  0  0  0  0  0  0  0
   -0.8070    1.1016   -0.5313 O   0  0  0  0  0  0  0  0  0  0  0  0
   -0.2380    0.5331    0.6816 B   0  0  0  0  0  0  0  0  0  0  0  0
    1.1715    5.7006   -1.4119 S   0  0  0  0  0  0  0  0  0  0  0  0
    1.1667    6.2614    0.1399 F   0  0  0  0  0  0  0  0  0  0  0  0
    2.6795    6.3828   -1.6324 F   0  0  0  0  0  0  0  0  0  0  0  0
    0.5454    7.1197   -1.8576 F   0  0  0  0  0  0  0  0  0  0  0  0
    1.1673    5.2873   -3.0282 F   0  0  0  0  0  0  0  0  0  0  0  0
   -0.3846    5.1149   -1.2964 F   0  0  0  0  0  0  0  0  0  0  0  0
    1.6885   -2.7728    4.9463 S   0  0  0  0  0  0  0  0  0  0  0  0
    3.2655   -2.7528    5.4995 F   0  0  0  0  0  0  0  0  0  0  0  0
    1.5023   -1.2183    5.5247 F   0  0  0  0  0  0  0  0  0  0  0  0
    1.2996   -3.2909    6.4342 F   0  0  0  0  0  0  0  0  0  0  0  0
    0.0683   -2.8034    4.6251 F   0  0  0  0  0  0  0  0  0  0  0  0
    1.8827   -4.3537    4.5196 F   0  0  0  0  0  0  0  0  0  0  0  0
    8.8580   -0.7708   -2.1040 S   0  0  0  0  0  0  0  0  0  0  0  0
    8.3228   -0.6800   -3.6754 F   0  0  0  0  0  0  0  0  0  0  0  0
    8.6287   -2.4169   -2.1200 F   0  0  0  0  0  0  0  0  0  0  0  0
   10.3345   -1.0513   -2.7074 F   0  0  0  0  0  0  0  0  0  0  0  0
    9.5428   -0.8875   -0.5938 F   0  0  0  0  0  0  0  0  0  0  0  0
    9.2380    0.8472   -2.1479 F   0  0  0  0  0  0  0  0  0  0  0  0
   -1.4574   -4.8635    2.1960 S   0  0  0  0  0  0  0  0  0  0  0  0
   -0.8982   -5.5863    0.8000 F   0  0  0  0  0  0  0  0  0  0  0  0
   -2.8782   -5.7237    2.0242 F   0  0  0  0  0  0  0  0  0  0  0  0
   -0.8700   -6.1378    2.9937 F   0  0  0  0  0  0  0  0  0  0  0  0
   -2.0025   -4.2911    3.6440 F   0  0  0  0  0  0  0  0  0  0  0  0
    0.0343   -4.1399    2.3746 F   0  0  0  0  0  0  0  0  0  0  0  0
   -2.9342    5.6029    0.8280 S   0  0  0  0  0  0  0  0  0  0  0  0
   -4.5905    5.8002    0.7196 F   0  0  0  0  0  0  0  0  0  0  0  0
   -3.1545    4.8762    2.3145 F   0  0  0  0  0  0  0  0  0  0  0  0
   -2.9390    7.0264    1.6074 F   0  0  0  0  0  0  0  0  0  0  0  0
   -1.3055    5.5790    1.1031 F   0  0  0  0  0  0  0  0  0  0  0  0
   -2.7657    6.4479   -0.5779 F   0  0  0  0  0  0  0  0  0  0  0  0
   -7.9398   -1.4306   -4.7027 S   0  0  0  0  0  0  0  0  0  0  0  0
   -7.5556   -0.1855   -5.7348 F   0  0  0  0  0  0  0  0  0  0  0  0
   -9.0183   -0.4385   -3.9179 F   0  0  0  0  0  0  0  0  0  0  0  0
   -9.1430   -1.7981   -5.7225 F   0  0  0  0  0  0  0  0  0  0  0  0
   -8.4470   -2.7123   -3.7731 F   0  0  0  0  0  0  0  0  0  0  0  0
   -6.9835   -2.4617   -5.5894 F   0  0  0  0  0  0  0  0  0  0  0  0
   -2.9631   -4.5788   -0.3285 H   0  0  0  0  0  0  0  0  0  0  0  0
   -5.9899   -3.0676   -3.3207 H   0  0  0  0  0  0  0  0  0  0  0  0
   -7.0364    1.0805   -3.5908 H   0  0  0  0  0  0  0  0  0  0  0  0
   -1.4195   -2.0907    2.7529 H   0  0  0  0  0  0  0  0  0  0  0  0
   -1.0812    3.4166    0.7766 H   0  0  0  0  0  0  0  0  0  0  0  0
    0.6260    3.9813    0.7738 H   0  0  0  0  0  0  0  0  0  0  0  0
    6.8177    1.1736   -2.7739 H   0  0  0  0  0  0  0  0  0  0  0  0
    0.2153   -1.3507    2.9486 H   0  0  0  0  0  0  0  0  0  0  0  0
    7.3775   -2.0001    0.0525 H   0  0  0  0  0  0  0  0  0  0  0  0
    3.2878    3.9801   -2.5429 H   0  0  0  0  0  0  0  0  0  0  0  0
    4.1824   -2.8981    3.3544 H   0  0  0  0  0  0  0  0  0  0  0  0
   -4.8605    4.3041   -1.0166 H   0  0  0  0  0  0  0  0  0  0  0  0
  1  2  4  0  0  0  0
  2  3  4  0  0  0  0
  3  4  4  0  0  0  0
  4  5  4  0  0  0  0
  1  6  4  0  0  0  0
  5  6  2  0  0  0  0
  3  7  4  0  0  0  0
  7  8  4  0  0  0  0
  8  9  4  0  0  0  0
  4 10  4  0  0  0  0
  9 10  4  0  0  0  0
  7 11  4  0  0  0  0
 11 12  1  0  0  0  0
 12 13  4  0  0  0  0
  8 14  1  0  0  0  0
 13 14  4  0  0  0  0
 14 15  4  0  0  0  0
 15 16  4  0  0  0  0
  9 17  4  0  0  0  0
 16 17  4  0  0  0  0
 11 18  4  0  0  0  0
 18 19  4  0  0  0  0
 19 20  4  0  0  0  0
 12 21  4  0  0  0  0
 20 21  2  0  0  0  0
  2 22  1  0  0  0  0
 18 23  1  0  0  0  0
 24 25  4  0  0  0  0
 25 26  4  0  0  0  0
 26 27  4  0  0  0  0
 27 28  4  0  0  0  0
 24 29  4  0  0  0  0
 28 29  2  0  0  0  0
 26 30  4  0  0  0  0
 30 31  4  0  0  0  0
 31 32  4  0  0  0  0
 27 33  4  0  0  0  0
 32 33  4  0  0  0  0
 30 34  4  0  0  0  0
 34 35  1  0  0  0  0
 35 36  4  0  0  0  0
 31 37  1  0  0  0  0
 36 37  4  0  0  0  0
 37 38  4  0  0  0  0
 38 39  4  0  0  0  0
 32 40  4  0  0  0  0
 39 40  4  0  0  0  0
 34 41  4  0  0  0  0
 41 42  4  0  0  0  0
 42 43  4  0  0  0  0
 35 44  4  0  0  0  0
 43 44  2  0  0  0  0
 25 45  1  0  0  0  0
 41 46  1  0  0  0  0
 22 47  1  0  0  0  0
 23 47  1  0  0  0  0
 45 47  1  0  0  0  0
 46 47  1  0  0  0  0
  6 48  1  0  0  0  0
 48 49  1  0  0  0  0
 48 50  1  0  0  0  0
 48 51  1  0  0  0  0
 48 52  1  0  0  0  0
 48 53  1  0  0  0  0
 20 54  1  0  0  0  0
 54 55  1  0  0  0  0
 54 56  1  0  0  0  0
 54 57  1  0  0  0  0
 54 58  1  0  0  0  0
 54 59  1  0  0  0  0
 16 60  1  0  0  0  0
 60 61  1  0  0  0  0
 60 62  1  0  0  0  0
 60 63  1  0  0  0  0
 60 64  1  0  0  0  0
 60 65  1  0  0  0  0
 29 66  1  0  0  0  0
 66 67  1  0  0  0  0
 66 68  1  0  0  0  0
 66 69  1  0  0  0  0
 66 70  1  0  0  0  0
 66 71  1  0  0  0  0
 43 72  1  0  0  0  0
 72 73  1  0  0  0  0
 72 74  1  0  0  0  0
 72 75  1  0  0  0  0
 72 76  1  0  0  0  0
 72 77  1  0  0  0  0
 39 78  1  0  0  0  0
 78 79  1  0  0  0  0
 78 80  1  0  0  0  0
 78 81  1  0  0  0  0
 78 82  1  0  0  0  0
 78 83  1  0  0  0  0
 28 84  1  0  0  0  0
 40 85  1  0  0  0  0
 38 86  1  0  0  0  0
 24 87  1  0  0  0  0
 42 88  1  0  0  0  0
  1 89  1  0  0  0  0
 17 90  1  0  0  0  0
 19 91  1  0  0  0  0
 15 92  1  0  0  0  0
  5 93  1  0  0  0  0
 21 94  1  0  0  0  0
 44 95  1  0  0  0  0
M  CHG  1   1  -1
M  END
