 xtb: 6.7.1 (edcfbbe)
          12102413423D

 95106  0     0  0            999 V2000
    1.0300    2.8259   -1.2294 C   0  0  0  0  0  0  0  0  0  0  0  0
    1.5434    1.9282   -0.2869 C   0  0  0  0  0  0  0  0  0  0  0  0
    2.9282    1.6058   -0.3888 C   0  0  0  0  0  0  0  0  0  0  0  0
    3.7375    2.4798   -1.2269 C   0  0  0  0  0  0  0  0  0  0  0  0
    3.1569    3.4615   -2.0844 C   0  0  0  0  0  0  0  0  0  0  0  0
    1.8050    3.5680   -2.0972 C   0  0  0  0  0  0  0  0  0  0  0  0
    3.6370    0.5240    0.2452 C   0  0  0  0  0  0  0  0  0  0  0  0
    5.0507    0.5754    0.2312 C   0  0  0  0  0  0  0  0  0  0  0  0
    5.7273    1.5819   -0.5131 C   0  0  0  0  0  0  0  0  0  0  0  0
    5.0569    2.4561   -1.2493 N   0  0  0  0  0  0  0  0  0  0  0  0
    3.0680   -0.5931    0.9376 C   0  0  0  0  0  0  0  0  0  0  0  0
    3.9413   -1.3696    1.8023 C   0  0  0  0  0  0  0  0  0  0  0  0
    5.2502   -1.2751    1.7582 N   0  0  0  0  0  0  0  0  0  0  0  0
    5.8226   -0.3717    0.9656 C   0  0  0  0  0  0  0  0  0  0  0  0
    7.2338   -0.2909    0.9470 C   0  0  0  0  0  0  0  0  0  0  0  0
    7.8476    0.6914    0.2024 C   0  0  0  0  0  0  0  0  0  0  0  0
    7.1444    1.6159   -0.5298 C   0  0  0  0  0  0  0  0  0  0  0  0
    1.7001   -0.9502    0.8900 C   0  0  0  0  0  0  0  0  0  0  0  0
    1.2072   -1.5456    2.0671 C   0  0  0  0  0  0  0  0  0  0  0  0
    2.0425   -2.2794    2.8935 C   0  0  0  0  0  0  0  0  0  0  0  0
    3.3879   -2.3018    2.7353 C   0  0  0  0  0  0  0  0  0  0  0  0
    0.6925    1.4266    0.6306 O   0  0  0  0  0  0  0  0  0  0  0  0
    0.9339   -0.6818   -0.1591 O   0  0  0  0  0  0  0  0  0  0  0  0
   -1.1352   -2.6110    0.4881 C   0  0  0  0  0  0  0  0  0  0  0  0
   -1.7949   -1.3806    0.3962 C   0  0  0  0  0  0  0  0  0  0  0  0
   -3.0342   -1.3605   -0.3082 C   0  0  0  0  0  0  0  0  0  0  0  0
   -3.6495   -2.6533   -0.5752 C   0  0  0  0  0  0  0  0  0  0  0  0
   -2.9568   -3.8826   -0.3629 C   0  0  0  0  0  0  0  0  0  0  0  0
   -1.6910   -3.8193    0.1198 C   0  0  0  0  0  0  0  0  0  0  0  0
   -3.7698   -0.2160   -0.7814 C   0  0  0  0  0  0  0  0  0  0  0  0
   -5.1104   -0.4233   -1.1823 C   0  0  0  0  0  0  0  0  0  0  0  0
   -5.6446   -1.7402   -1.2550 C   0  0  0  0  0  0  0  0  0  0  0  0
   -4.8888   -2.7996   -1.0055 N   0  0  0  0  0  0  0  0  0  0  0  0
   -3.3084    1.1376   -0.8530 C   0  0  0  0  0  0  0  0  0  0  0  0
   -4.3022    2.1854   -1.0175 C   0  0  0  0  0  0  0  0  0  0  0  0
   -5.5407    1.9380   -1.3764 N   0  0  0  0  0  0  0  0  0  0  0  0
   -5.9516    0.6792   -1.5129 C   0  0  0  0  0  0  0  0  0  0  0  0
   -7.2933    0.4473   -1.8922 C   0  0  0  0  0  0  0  0  0  0  0  0
   -7.7662   -0.8442   -1.9594 C   0  0  0  0  0  0  0  0  0  0  0  0
   -6.9870   -1.9362   -1.6666 C   0  0  0  0  0  0  0  0  0  0  0  0
   -1.9567    1.5265   -0.7087 C   0  0  0  0  0  0  0  0  0  0  0  0
   -1.7689    2.7974   -0.1318 C   0  0  0  0  0  0  0  0  0  0  0  0
   -2.7193    3.7932   -0.2869 C   0  0  0  0  0  0  0  0  0  0  0  0
   -3.9454    3.5553   -0.8119 C   0  0  0  0  0  0  0  0  0  0  0  0
   -1.2034   -0.3104    0.9652 O   0  0  0  0  0  0  0  0  0  0  0  0
   -0.9514    0.7243   -1.0338 O   0  0  0  0  0  0  0  0  0  0  0  0
   -0.1352    0.2954    0.1165 B   0  0  0  0  0  0  0  0  0  0  0  0
    0.9048    4.6865   -3.2964 S   0  0  0  0  0  0  0  0  0  0  0  0
    1.0497    5.9811   -2.3136 F   0  0  0  0  0  0  0  0  0  0  0  0
    2.3099    5.0881   -4.0536 F   0  0  0  0  0  0  0  0  0  0  0  0
    0.1469    5.5980   -4.3680 F   0  0  0  0  0  0  0  0  0  0  0  0
    0.7218    3.3968   -4.3204 F   0  0  0  0  0  0  0  0  0  0  0  0
   -0.6015    4.3346   -2.6755 F   0  0  0  0  0  0  0  0  0  0  0  0
    1.1953   -3.2945    4.2018 S   0  0  0  0  0  0  0  0  0  0  0  0
    2.4662   -3.1100    5.2290 F   0  0  0  0  0  0  0  0  0  0  0  0
    0.5007   -1.9243    4.8147 F   0  0  0  0  0  0  0  0  0  0  0  0
    0.4547   -4.1319    5.3393 F   0  0  0  0  0  0  0  0  0  0  0  0
   -0.1539   -3.4952    3.2608 F   0  0  0  0  0  0  0  0  0  0  0  0
    1.8499   -4.6764    3.6323 F   0  0  0  0  0  0  0  0  0  0  0  0
    9.7098    0.7791    0.2023 S   0  0  0  0  0  0  0  0  0  0  0  0
    9.7275    0.9836   -1.4268 F   0  0  0  0  0  0  0  0  0  0  0  0
    9.8145   -0.8476    0.0062 F   0  0  0  0  0  0  0  0  0  0  0  0
   11.2982    0.8559    0.2047 F   0  0  0  0  0  0  0  0  0  0  0  0
    9.7428    0.5785    1.8321 F   0  0  0  0  0  0  0  0  0  0  0  0
    9.6573    2.4087    0.3997 F   0  0  0  0  0  0  0  0  0  0  0  0
   -0.6129   -5.3390    0.2904 S   0  0  0  0  0  0  0  0  0  0  0  0
   -1.7665   -6.2953   -0.3921 F   0  0  0  0  0  0  0  0  0  0  0  0
   -1.1969   -5.6744    1.7777 F   0  0  0  0  0  0  0  0  0  0  0  0
    0.3155   -6.6369    0.3739 F   0  0  0  0  0  0  0  0  0  0  0  0
    0.6709   -4.4984    0.9403 F   0  0  0  0  0  0  0  0  0  0  0  0
    0.0170   -5.0297   -1.2104 F   0  0  0  0  0  0  0  0  0  0  0  0
   -2.1825    5.5030    0.2131 S   0  0  0  0  0  0  0  0  0  0  0  0
   -3.7142    5.9004    0.6600 F   0  0  0  0  0  0  0  0  0  0  0  0
   -1.8768    4.9563    1.7444 F   0  0  0  0  0  0  0  0  0  0  0  0
   -1.7168    6.9549    0.6813 F   0  0  0  0  0  0  0  0  0  0  0  0
   -0.5994    5.1837   -0.1611 F   0  0  0  0  0  0  0  0  0  0  0  0
   -2.4619    6.0908   -1.2826 F   0  0  0  0  0  0  0  0  0  0  0  0
   -9.5437   -1.1170   -2.4513 S   0  0  0  0  0  0  0  0  0  0  0  0
   -9.4024   -0.0289   -3.6727 F   0  0  0  0  0  0  0  0  0  0  0  0
  -10.0305    0.0859   -1.4442 F   0  0  0  0  0  0  0  0  0  0  0  0
  -11.0611   -1.3485   -2.8670 F   0  0  0  0  0  0  0  0  0  0  0  0
   -9.7355   -2.2120   -1.2424 F   0  0  0  0  0  0  0  0  0  0  0  0
   -9.1057   -2.3278   -3.4698 F   0  0  0  0  0  0  0  0  0  0  0  0
   -3.4717   -4.7981   -0.6014 H   0  0  0  0  0  0  0  0  0  0  0  0
   -7.3663   -2.9439   -1.7501 H   0  0  0  0  0  0  0  0  0  0  0  0
   -7.9300    1.2938   -2.1033 H   0  0  0  0  0  0  0  0  0  0  0  0
   -0.1366   -2.6266    0.8756 H   0  0  0  0  0  0  0  0  0  0  0  0
   -0.8942    2.9891    0.4696 H   0  0  0  0  0  0  0  0  0  0  0  0
   -0.0314    2.9599   -1.2818 H   0  0  0  0  0  0  0  0  0  0  0  0
    7.6419    2.3645   -1.1284 H   0  0  0  0  0  0  0  0  0  0  0  0
    0.1768   -1.3986    2.3508 H   0  0  0  0  0  0  0  0  0  0  0  0
    7.8048   -0.9928    1.5367 H   0  0  0  0  0  0  0  0  0  0  0  0
    3.8202    4.0619   -2.6841 H   0  0  0  0  0  0  0  0  0  0  0  0
    4.0488   -2.9321    3.3060 H   0  0  0  0  0  0  0  0  0  0  0  0
   -4.6675    4.3256   -1.0236 H   0  0  0  0  0  0  0  0  0  0  0  0
  1  2  4  0  0  0  0
  2  3  4  0  0  0  0
  3  4  1  0  0  0  0
  4  5  1  0  0  0  0
  1  6  4  0  0  0  0
  5  6  2  0  0  0  0
  3  7  4  0  0  0  0
  7  8  4  0  0  0  0
  8  9  4  0  0  0  0
  4 10  4  0  0  0  0
  9 10  4  0  0  0  0
  7 11  4  0  0  0  0
 11 12  1  0  0  0  0
 12 13  4  0  0  0  0
  8 14  4  0  0  0  0
 13 14  4  0  0  0  0
 14 15  4  0  0  0  0
 15 16  4  0  0  0  0
  9 17  4  0  0  0  0
 16 17  4  0  0  0  0
 11 18  4  0  0  0  0
 18 19  4  0  0  0  0
 19 20  4  0  0  0  0
 12 21  1  0  0  0  0
 20 21  2  0  0  0  0
  2 22  1  0  0  0  0
 18 23  1  0  0  0  0
 24 25  4  0  0  0  0
 25 26  4  0  0  0  0
 26 27  1  0  0  0  0
 27 28  1  0  0  0  0
 24 29  4  0  0  0  0
 28 29  2  0  0  0  0
 26 30  4  0  0  0  0
 30 31  4  0  0  0  0
 31 32  1  0  0  0  0
 27 33  4  0  0  0  0
 32 33  4  0  0  0  0
 30 34  4  0  0  0  0
 34 35  1  0  0  0  0
 35 36  4  0  0  0  0
 31 37  4  0  0  0  0
 36 37  4  0  0  0  0
 37 38  4  0  0  0  0
 38 39  4  0  0  0  0
 32 40  4  0  0  0  0
 39 40  4  0  0  0  0
 34 41  4  0  0  0  0
 41 42  4  0  0  0  0
 42 43  4  0  0  0  0
 35 44  1  0  0  0  0
 43 44  2  0  0  0  0
 25 45  1  0  0  0  0
 41 46  1  0  0  0  0
 22 47  1  0  0  0  0
 23 47  1  0  0  0  0
 45 47  1  0  0  0  0
 46 47  1  0  0  0  0
  6 48  1  0  0  0  0
 48 49  1  0  0  0  0
 48 50  1  0  0  0  0
 48 51  1  0  0  0  0
 48 52  1  0  0  0  0
 48 53  1  0  0  0  0
 20 54  1  0  0  0  0
 54 55  1  0  0  0  0
 54 56  1  0  0  0  0
 54 57  1  0  0  0  0
 54 58  1  0  0  0  0
 54 59  1  0  0  0  0
 16 60  1  0  0  0  0
 60 61  1  0  0  0  0
 60 62  1  0  0  0  0
 60 63  1  0  0  0  0
 60 64  1  0  0  0  0
 60 65  1  0  0  0  0
 29 66  1  0  0  0  0
 66 67  1  0  0  0  0
 66 68  1  0  0  0  0
 66 69  1  0  0  0  0
 66 70  1  0  0  0  0
 66 71  1  0  0  0  0
 43 72  1  0  0  0  0
 72 73  1  0  0  0  0
 72 74  1  0  0  0  0
 72 75  1  0  0  0  0
 72 76  1  0  0  0  0
 72 77  1  0  0  0  0
 39 78  1  0  0  0  0
 78 79  1  0  0  0  0
 78 80  1  0  0  0  0
 78 81  1  0  0  0  0
 78 82  1  0  0  0  0
 78 83  1  0  0  0  0
 28 84  1  0  0  0  0
 40 85  1  0  0  0  0
 38 86  1  0  0  0  0
 24 87  1  0  0  0  0
 42 88  1  0  0  0  0
  1 89  1  0  0  0  0
 17 90  1  0  0  0  0
 19 91  1  0  0  0  0
 15 92  1  0  0  0  0
  5 93  1  0  0  0  0
 21 94  1  0  0  0  0
 44 95  1  0  0  0  0
M  CHG  1   1   1
M  END
