 energy: -37.088141594613 gnorm: 0.000985422952 xtb: 6.7.1 (edcfbbe)
          12102413423D

190212  0     0  0            999 V2000
   -0.4319    2.6740   -1.0328 C   0  0  0  0  0  0  0  0  0  0  0  0
    0.2708    1.7567   -0.2445 C   0  0  0  0  0  0  0  0  0  0  0  0
    1.6629    1.5221   -0.5740 C   0  0  0  0  0  0  0  0  0  0  0  0
    2.2729    2.3765   -1.5434 C   0  0  0  0  0  0  0  0  0  0  0  0
    1.4809    3.2755   -2.2764 C   0  0  0  0  0  0  0  0  0  0  0  0
    0.1461    3.4039   -2.0423 C   0  0  0  0  0  0  0  0  0  0  0  0
    2.5290    0.5589    0.0477 C   0  0  0  0  0  0  0  0  0  0  0  0
    3.9109    0.7209   -0.1140 C   0  0  0  0  0  0  0  0  0  0  0  0
    4.4031    1.6584   -1.0578 C   0  0  0  0  0  0  0  0  0  0  0  0
    3.5942    2.4146   -1.8112 N   0  0  0  0  0  0  0  0  0  0  0  0
    2.1510   -0.4893    0.9356 C   0  0  0  0  0  0  0  0  0  0  0  0
    3.1186   -1.0040    1.8478 C   0  0  0  0  0  0  0  0  0  0  0  0
    4.4437   -0.8375    1.6848 N   0  0  0  0  0  0  0  0  0  0  0  0
    4.8261   -0.0296    0.6828 C   0  0  0  0  0  0  0  0  0  0  0  0
    6.1985    0.1662    0.4775 C   0  0  0  0  0  0  0  0  0  0  0  0
    6.6699    1.0558   -0.4563 C   0  0  0  0  0  0  0  0  0  0  0  0
    5.7897    1.7909   -1.2120 C   0  0  0  0  0  0  0  0  0  0  0  0
    0.8031   -0.9660    1.0263 C   0  0  0  0  0  0  0  0  0  0  0  0
    0.3893   -1.4765    2.2636 C   0  0  0  0  0  0  0  0  0  0  0  0
    1.3054   -1.7652    3.2537 C   0  0  0  0  0  0  0  0  0  0  0  0
    2.6478   -1.6328    3.0160 C   0  0  0  0  0  0  0  0  0  0  0  0
   -0.4736    1.1588    0.7704 O   0  0  0  0  0  0  0  0  0  0  0  0
   -0.0178   -0.8835   -0.0793 O   0  0  0  0  0  0  0  0  0  0  0  0
   -1.5887   -3.1123    0.3551 C   0  0  0  0  0  0  0  0  0  0  0  0
   -2.4586   -2.0174    0.3500 C   0  0  0  0  0  0  0  0  0  0  0  0
   -3.6684   -2.1326   -0.4332 C   0  0  0  0  0  0  0  0  0  0  0  0
   -3.9908   -3.4089   -0.9874 C   0  0  0  0  0  0  0  0  0  0  0  0
   -3.0496   -4.4504   -0.9272 C   0  0  0  0  0  0  0  0  0  0  0  0
   -1.8593   -4.2966   -0.2843 C   0  0  0  0  0  0  0  0  0  0  0  0
   -4.6317   -1.0890   -0.6363 C   0  0  0  0  0  0  0  0  0  0  0  0
   -5.9128   -1.4677   -1.0602 C   0  0  0  0  0  0  0  0  0  0  0  0
   -6.1417   -2.7924   -1.5131 C   0  0  0  0  0  0  0  0  0  0  0  0
   -5.1755   -3.7197   -1.5512 N   0  0  0  0  0  0  0  0  0  0  0  0
   -4.4803    0.2940   -0.3221 C   0  0  0  0  0  0  0  0  0  0  0  0
   -5.6523    1.0700   -0.0870 C   0  0  0  0  0  0  0  0  0  0  0  0
   -6.8829    0.6880   -0.4772 N   0  0  0  0  0  0  0  0  0  0  0  0
   -6.9959   -0.5429   -0.9994 C   0  0  0  0  0  0  0  0  0  0  0  0
   -8.2622   -0.9724   -1.4198 C   0  0  0  0  0  0  0  0  0  0  0  0
   -8.4706   -2.2450   -1.8931 C   0  0  0  0  0  0  0  0  0  0  0  0
   -7.4302   -3.1405   -1.9400 C   0  0  0  0  0  0  0  0  0  0  0  0
   -3.1993    0.9155   -0.1491 C   0  0  0  0  0  0  0  0  0  0  0  0
   -3.1420    2.0403    0.6832 C   0  0  0  0  0  0  0  0  0  0  0  0
   -4.2945    2.6673    1.1108 C   0  0  0  0  0  0  0  0  0  0  0  0
   -5.5194    2.2545    0.6596 C   0  0  0  0  0  0  0  0  0  0  0  0
   -2.0535   -0.9148    1.0976 O   0  0  0  0  0  0  0  0  0  0  0  0
   -2.0847    0.3792   -0.7620 O   0  0  0  0  0  0  0  0  0  0  0  0
   -1.1610   -0.0594    0.2741 B   0  0  0  0  0  0  0  0  0  0  0  0
   -0.9153    4.5764   -3.0826 S   0  0  0  0  0  0  0  0  0  0  0  0
   -0.6317    5.6916   -2.0007 F   0  0  0  0  0  0  0  0  0  0  0  0
    0.4026    4.9809   -3.8441 F   0  0  0  0  0  0  0  0  0  0  0  0
   -1.7958    5.5507   -3.9609 F   0  0  0  0  0  0  0  0  0  0  0  0
   -1.1220    3.3746   -4.0854 F   0  0  0  0  0  0  0  0  0  0  0  0
   -2.1658    4.0929   -2.2584 F   0  0  0  0  0  0  0  0  0  0  0  0
    0.6993   -2.3358    4.9482 S   0  0  0  0  0  0  0  0  0  0  0  0
    1.9018   -3.3491    4.9549 F   0  0  0  0  0  0  0  0  0  0  0  0
    1.6516   -1.2442    5.5614 F   0  0  0  0  0  0  0  0  0  0  0  0
    0.1944   -2.7871    6.3570 F   0  0  0  0  0  0  0  0  0  0  0  0
   -0.4626   -1.2877    4.8180 F   0  0  0  0  0  0  0  0  0  0  0  0
   -0.2068   -3.3766    4.1965 F   0  0  0  0  0  0  0  0  0  0  0  0
    8.5367    1.2734   -0.6919 S   0  0  0  0  0  0  0  0  0  0  0  0
    8.2104    2.3379   -1.8061 F   0  0  0  0  0  0  0  0  0  0  0  0
    8.4592    0.1235   -1.7716 F   0  0  0  0  0  0  0  0  0  0  0  0
   10.0944    1.4511   -0.8917 F   0  0  0  0  0  0  0  0  0  0  0  0
    8.7434    0.1963    0.4384 F   0  0  0  0  0  0  0  0  0  0  0  0
    8.4781    2.4060    0.4074 F   0  0  0  0  0  0  0  0  0  0  0  0
   -0.5800   -5.6914   -0.2452 S   0  0  0  0  0  0  0  0  0  0  0  0
   -1.6192   -6.5681   -1.0384 F   0  0  0  0  0  0  0  0  0  0  0  0
   -1.2325   -6.1494    1.1165 F   0  0  0  0  0  0  0  0  0  0  0  0
    0.4815   -6.8599   -0.2181 F   0  0  0  0  0  0  0  0  0  0  0  0
    0.3788   -4.7233    0.5415 F   0  0  0  0  0  0  0  0  0  0  0  0
   -0.0244   -5.1211   -1.6074 F   0  0  0  0  0  0  0  0  0  0  0  0
   -4.1801    4.0736    2.3678 S   0  0  0  0  0  0  0  0  0  0  0  0
   -5.2656    3.2778    3.1730 F   0  0  0  0  0  0  0  0  0  0  0  0
   -3.0429    3.2352    3.0489 F   0  0  0  0  0  0  0  0  0  0  0  0
   -4.0757    5.1827    3.4746 F   0  0  0  0  0  0  0  0  0  0  0  0
   -3.1036    4.7435    1.4379 F   0  0  0  0  0  0  0  0  0  0  0  0
   -5.3271    4.8083    1.5820 F   0  0  0  0  0  0  0  0  0  0  0  0
  -10.1927   -2.7690   -2.4816 S   0  0  0  0  0  0  0  0  0  0  0  0
   -9.7793   -2.2375   -3.9112 F   0  0  0  0  0  0  0  0  0  0  0  0
  -10.6980   -1.3269   -2.0958 F   0  0  0  0  0  0  0  0  0  0  0  0
  -11.6278   -3.2023   -2.9850 F   0  0  0  0  0  0  0  0  0  0  0  0
  -10.4868   -3.2681   -1.0107 F   0  0  0  0  0  0  0  0  0  0  0  0
   -9.5795   -4.1779   -2.8313 F   0  0  0  0  0  0  0  0  0  0  0  0
   -3.2824   -5.3979   -1.3915 H   0  0  0  0  0  0  0  0  0  0  0  0
   -7.6100   -4.1433   -2.2998 H   0  0  0  0  0  0  0  0  0  0  0  0
   -9.0978   -0.2906   -1.3437 H   0  0  0  0  0  0  0  0  0  0  0  0
   -0.6408   -3.0256    0.8568 H   0  0  0  0  0  0  0  0  0  0  0  0
   -2.1903    2.3875    1.0601 H   0  0  0  0  0  0  0  0  0  0  0  0
   -1.4869    2.8064   -0.8655 H   0  0  0  0  0  0  0  0  0  0  0  0
    6.1725    2.4990   -1.9328 H   0  0  0  0  0  0  0  0  0  0  0  0
   -0.6626   -1.6092    2.4702 H   0  0  0  0  0  0  0  0  0  0  0  0
    6.9020   -0.3854    1.0837 H   0  0  0  0  0  0  0  0  0  0  0  0
    1.9461    3.8842   -3.0387 H   0  0  0  0  0  0  0  0  0  0  0  0
    3.3537   -1.9332    3.7753 H   0  0  0  0  0  0  0  0  0  0  0  0
   -6.4104    2.7832    0.9673 H   0  0  0  0  0  0  0  0  0  0  0  0
    2.4681    2.0894    5.8913 C   0  0  0  0  0  0  0  0  0  0  0  0
    2.6995    1.7813    7.2383 C   0  0  0  0  0  0  0  0  0  0  0  0
    4.0213    1.3321    7.5965 C   0  0  0  0  0  0  0  0  0  0  0  0
    5.0609    1.4428    6.6247 C   0  0  0  0  0  0  0  0  0  0  0  0
    4.7396    1.8028    5.3048 C   0  0  0  0  0  0  0  0  0  0  0  0
    3.4621    2.1049    4.9440 C   0  0  0  0  0  0  0  0  0  0  0  0
    4.3897    0.8369    8.8889 C   0  0  0  0  0  0  0  0  0  0  0  0
    5.7574    0.8012    9.1882 C   0  0  0  0  0  0  0  0  0  0  0  0
    6.7136    1.0095    8.1594 C   0  0  0  0  0  0  0  0  0  0  0  0
    6.3691    1.2559    6.8883 N   0  0  0  0  0  0  0  0  0  0  0  0
    3.5176    0.4145    9.9376 C   0  0  0  0  0  0  0  0  0  0  0  0
    4.0337    0.3586   11.2640 C   0  0  0  0  0  0  0  0  0  0  0  0
    5.3466    0.4221   11.5542 N   0  0  0  0  0  0  0  0  0  0  0  0
    6.1928    0.5606   10.5219 C   0  0  0  0  0  0  0  0  0  0  0  0
    7.5708    0.5216   10.7749 C   0  0  0  0  0  0  0  0  0  0  0  0
    8.4928    0.7000    9.7723 C   0  0  0  0  0  0  0  0  0  0  0  0
    8.0741    0.9380    8.4862 C   0  0  0  0  0  0  0  0  0  0  0  0
    2.1508    0.0389    9.7214 C   0  0  0  0  0  0  0  0  0  0  0  0
    1.3020    0.0184   10.8349 C   0  0  0  0  0  0  0  0  0  0  0  0
    1.7867    0.1020   12.1221 C   0  0  0  0  0  0  0  0  0  0  0  0
    3.1314    0.2206   12.3337 C   0  0  0  0  0  0  0  0  0  0  0  0
    1.6469    1.9311    8.1361 O   0  0  0  0  0  0  0  0  0  0  0  0
    1.6879   -0.2984    8.4626 O   0  0  0  0  0  0  0  0  0  0  0  0
   -0.6223   -1.8519    9.0219 C   0  0  0  0  0  0  0  0  0  0  0  0
   -1.0661   -0.6980    8.3653 C   0  0  0  0  0  0  0  0  0  0  0  0
   -2.0642   -0.8604    7.3342 C   0  0  0  0  0  0  0  0  0  0  0  0
   -2.6339   -2.1562    7.1403 C   0  0  0  0  0  0  0  0  0  0  0  0
   -2.1420   -3.2487    7.8738 C   0  0  0  0  0  0  0  0  0  0  0  0
   -1.1464   -3.1019    8.7915 C   0  0  0  0  0  0  0  0  0  0  0  0
   -2.5856    0.1967    6.5194 C   0  0  0  0  0  0  0  0  0  0  0  0
   -3.7430   -0.0731    5.7792 C   0  0  0  0  0  0  0  0  0  0  0  0
   -4.2059   -1.4066    5.6399 C   0  0  0  0  0  0  0  0  0  0  0  0
   -3.6443   -2.4328    6.2907 N   0  0  0  0  0  0  0  0  0  0  0  0
   -2.0625    1.5157    6.3535 C   0  0  0  0  0  0  0  0  0  0  0  0
   -2.9085    2.5373    5.8407 C   0  0  0  0  0  0  0  0  0  0  0  0
   -4.0999    2.2784    5.2746 N   0  0  0  0  0  0  0  0  0  0  0  0
   -4.4252    0.9851    5.1170 C   0  0  0  0  0  0  0  0  0  0  0  0
   -5.4747    0.6622    4.2497 C   0  0  0  0  0  0  0  0  0  0  0  0
   -5.8539   -0.6405    4.0382 C   0  0  0  0  0  0  0  0  0  0  0  0
   -5.2567   -1.6567    4.7458 C   0  0  0  0  0  0  0  0  0  0  0  0
   -0.6924    1.8342    6.5958 C   0  0  0  0  0  0  0  0  0  0  0  0
   -0.3459    3.1876    6.6992 C   0  0  0  0  0  0  0  0  0  0  0  0
   -1.2117    4.1905    6.3157 C   0  0  0  0  0  0  0  0  0  0  0  0
   -2.4545    3.8691    5.8445 C   0  0  0  0  0  0  0  0  0  0  0  0
   -0.4978    0.5091    8.7646 O   0  0  0  0  0  0  0  0  0  0  0  0
    0.2440    0.8212    6.6606 O   0  0  0  0  0  0  0  0  0  0  0  0
    0.7643    0.7443    8.0175 B   0  0  0  0  0  0  0  0  0  0  0  0
    3.0326    2.5645    3.1577 S   0  0  0  0  0  0  0  0  0  0  0  0
    3.8678    3.8802    3.3667 F   0  0  0  0  0  0  0  0  0  0  0  0
    4.3391    1.8152    2.7363 F   0  0  0  0  0  0  0  0  0  0  0  0
    2.6883    2.9186    1.6722 F   0  0  0  0  0  0  0  0  0  0  0  0
    2.2314    1.2235    3.0950 F   0  0  0  0  0  0  0  0  0  0  0  0
    1.7513    3.2804    3.7143 F   0  0  0  0  0  0  0  0  0  0  0  0
    0.5858    0.0288   13.5830 S   0  0  0  0  0  0  0  0  0  0  0  0
    1.8180    0.3037   14.5243 F   0  0  0  0  0  0  0  0  0  0  0  0
    0.3803    1.5824   13.3931 F   0  0  0  0  0  0  0  0  0  0  0  0
   -0.4153   -0.0266   14.8042 F   0  0  0  0  0  0  0  0  0  0  0  0
   -0.5661   -0.2464   12.5468 F   0  0  0  0  0  0  0  0  0  0  0  0
    0.8810   -1.5212   13.6621 F   0  0  0  0  0  0  0  0  0  0  0  0
   10.3443    0.6242   10.1624 S   0  0  0  0  0  0  0  0  0  0  0  0
   10.6161    0.8840    8.6325 F   0  0  0  0  0  0  0  0  0  0  0  0
   10.2667   -0.9282    9.8820 F   0  0  0  0  0  0  0  0  0  0  0  0
   11.8896    0.5613   10.4883 F   0  0  0  0  0  0  0  0  0  0  0  0
    9.9544    0.3693   11.6672 F   0  0  0  0  0  0  0  0  0  0  0  0
   10.2816    2.1824   10.4125 F   0  0  0  0  0  0  0  0  0  0  0  0
   -0.4902   -4.5930    9.7562 S   0  0  0  0  0  0  0  0  0  0  0  0
   -1.5514   -5.4704    8.9897 F   0  0  0  0  0  0  0  0  0  0  0  0
   -1.5736   -4.2479   10.8546 F   0  0  0  0  0  0  0  0  0  0  0  0
    0.0358   -5.8381   10.5775 F   0  0  0  0  0  0  0  0  0  0  0  0
    0.5325   -3.6230   10.4588 F   0  0  0  0  0  0  0  0  0  0  0  0
    0.5567   -4.8463    8.5981 F   0  0  0  0  0  0  0  0  0  0  0  0
   -0.6456    5.9931    6.4092 S   0  0  0  0  0  0  0  0  0  0  0  0
   -2.1325    6.4094    6.0900 F   0  0  0  0  0  0  0  0  0  0  0  0
   -0.9890    5.9395    7.9501 F   0  0  0  0  0  0  0  0  0  0  0  0
   -0.1766    7.5006    6.4967 F   0  0  0  0  0  0  0  0  0  0  0  0
    0.8037    5.4624    6.7212 F   0  0  0  0  0  0  0  0  0  0  0  0
   -0.3377    5.9183    4.8596 F   0  0  0  0  0  0  0  0  0  0  0  0
   -7.1624   -1.0366    2.7260 S   0  0  0  0  0  0  0  0  0  0  0  0
   -5.9549   -1.3093    1.7656 F   0  0  0  0  0  0  0  0  0  0  0  0
   -7.1219    0.4805    2.3381 F   0  0  0  0  0  0  0  0  0  0  0  0
   -8.2061   -1.3596    1.5986 F   0  0  0  0  0  0  0  0  0  0  0  0
   -8.2643   -0.7317    3.8056 F   0  0  0  0  0  0  0  0  0  0  0  0
   -7.1050   -2.5305    3.2046 F   0  0  0  0  0  0  0  0  0  0  0  0
   -2.5531   -4.2316    7.6907 H   0  0  0  0  0  0  0  0  0  0  0  0
   -5.5808   -2.6747    4.5868 H   0  0  0  0  0  0  0  0  0  0  0  0
   -5.9412    1.4604    3.6892 H   0  0  0  0  0  0  0  0  0  0  0  0
    0.1949   -1.7824    9.7193 H   0  0  0  0  0  0  0  0  0  0  0  0
    0.6285    3.4632    7.0750 H   0  0  0  0  0  0  0  0  0  0  0  0
    1.4671    2.3002    5.5517 H   0  0  0  0  0  0  0  0  0  0  0  0
    8.8089    1.0817    7.7073 H   0  0  0  0  0  0  0  0  0  0  0  0
    0.2334   -0.0326   10.6914 H   0  0  0  0  0  0  0  0  0  0  0  0
    7.9135    0.3469   11.7845 H   0  0  0  0  0  0  0  0  0  0  0  0
    5.5200    1.8305    4.5590 H   0  0  0  0  0  0  0  0  0  0  0  0
    3.5086    0.2485   13.3456 H   0  0  0  0  0  0  0  0  0  0  0  0
   -3.0932    4.6433    5.4370 H   0  0  0  0  0  0  0  0  0  0  0  0
  1  2  1  0  0  0  0
  1  6  1  0  0  0  0
  1 89  1  0  0  0  0
  2  3  2  0  0  0  0
  2 22  1  0  0  0  0
  3  7  1  0  0  0  0
  4  3  1  0  0  0  0
  4  5  1  0  0  0  0
  4 10  1  0  0  0  0
  5  6  2  0  0  0  0
  5 93  1  0  0  0  0
  6 48  1  0  0  0  0
  7 11  2  0  0  0  0
  8  7  1  0  0  0  0
  8  9  1  0  0  0  0
  8 14  1  0  0  0  0
  9 10  2  0  0  0  0
  9 17  1  0  0  0  0
 11 12  1  0  0  0  0
 11 18  1  0  0  0  0
 12 13  2  0  0  0  0
 12 21  1  0  0  0  0
 13 14  1  0  0  0  0
 14 15  2  0  0  0  0
 15 16  1  0  0  0  0
 15 92  1  0  0  0  0
 16 17  2  0  0  0  0
 16 60  1  0  0  0  0
 17 90  1  0  0  0  0
 18 19  2  0  0  0  0
 18 23  1  0  0  0  0
 19 20  1  0  0  0  0
 19 91  1  0  0  0  0
 20 21  2  0  0  0  0
 20 54  1  0  0  0  0
 21 94  1  0  0  0  0
 23 47  1  0  0  0  0
 24 25  1  0  0  0  0
 24 29  1  0  0  0  0
 24 87  1  0  0  0  0
 25 26  2  0  0  0  0
 25 45  1  0  0  0  0
 26 30  1  0  0  0  0
 27 26  1  0  0  0  0
 27 28  1  0  0  0  0
 27 33  1  0  0  0  0
 28 29  2  0  0  0  0
 28 84  1  0  0  0  0
 29 66  1  0  0  0  0
 30 34  2  0  0  0  0
 31 30  1  0  0  0  0
 31 32  1  0  0  0  0
 31 37  1  0  0  0  0
 32 33  2  0  0  0  0
 32 40  1  0  0  0  0
 34 35  1  0  0  0  0
 34 41  1  0  0  0  0
 35 36  2  0  0  0  0
 35 44  1  0  0  0  0
 36 37  1  0  0  0  0
 37 38  2  0  0  0  0
 38 39  1  0  0  0  0
 38 86  1  0  0  0  0
 39 40  2  0  0  0  0
 39 78  1  0  0  0  0
 40 85  1  0  0  0  0
 41 42  2  0  0  0  0
 41 46  1  0  0  0  0
 42 43  1  0  0  0  0
 42 88  1  0  0  0  0
 43 44  2  0  0  0  0
 43 72  1  0  0  0  0
 44 95  1  0  0  0  0
 45 47  1  0  0  0  0
 46 47  1  0  0  0  0
 47 22  1  0  0  0  0
 48 49  1  0  0  0  0
 48 50  1  0  0  0  0
 48 51  1  0  0  0  0
 48 52  1  0  0  0  0
 48 53  1  0  0  0  0
 54 55  1  0  0  0  0
 54 56  1  0  0  0  0
 54 57  1  0  0  0  0
 54 58  1  0  0  0  0
 54 59  1  0  0  0  0
 60 61  1  0  0  0  0
 60 62  1  0  0  0  0
 60 63  1  0  0  0  0
 60 64  1  0  0  0  0
 60 65  1  0  0  0  0
 66 67  1  0  0  0  0
 66 68  1  0  0  0  0
 66 69  1  0  0  0  0
 66 70  1  0  0  0  0
 66 71  1  0  0  0  0
 72 73  1  0  0  0  0
 72 74  1  0  0  0  0
 72 75  1  0  0  0  0
 72 76  1  0  0  0  0
 72 77  1  0  0  0  0
 78 79  1  0  0  0  0
 78 80  1  0  0  0  0
 78 81  1  0  0  0  0
 78 82  1  0  0  0  0
 78 83  1  0  0  0  0
 96 97  1  0  0  0  0
 96101  1  0  0  0  0
 96184  1  0  0  0  0
 97 98  2  0  0  0  0
 97117  1  0  0  0  0
 98102  1  0  0  0  0
 99 98  1  0  0  0  0
 99100  1  0  0  0  0
 99105  1  0  0  0  0
100101  2  0  0  0  0
100188  1  0  0  0  0
101143  1  0  0  0  0
102106  2  0  0  0  0
103102  1  0  0  0  0
103104  1  0  0  0  0
103109  1  0  0  0  0
104105  2  0  0  0  0
104112  1  0  0  0  0
106107  1  0  0  0  0
106113  1  0  0  0  0
107108  2  0  0  0  0
107116  1  0  0  0  0
108109  1  0  0  0  0
109110  2  0  0  0  0
110111  1  0  0  0  0
110187  1  0  0  0  0
111112  2  0  0  0  0
111155  1  0  0  0  0
112185  1  0  0  0  0
113114  2  0  0  0  0
113118  1  0  0  0  0
114115  1  0  0  0  0
114186  1  0  0  0  0
115116  2  0  0  0  0
115149  1  0  0  0  0
116189  1  0  0  0  0
118142  1  0  0  0  0
119120  1  0  0  0  0
119124  1  0  0  0  0
119182  1  0  0  0  0
120121  2  0  0  0  0
120140  1  0  0  0  0
121125  1  0  0  0  0
122121  1  0  0  0  0
122123  1  0  0  0  0
122128  1  0  0  0  0
123124  2  0  0  0  0
123179  1  0  0  0  0
124161  1  0  0  0  0
125129  2  0  0  0  0
126125  1  0  0  0  0
126127  1  0  0  0  0
126132  1  0  0  0  0
127128  2  0  0  0  0
127135  1  0  0  0  0
129130  1  0  0  0  0
129136  1  0  0  0  0
130131  2  0  0  0  0
130139  1  0  0  0  0
131132  1  0  0  0  0
132133  2  0  0  0  0
133134  1  0  0  0  0
133181  1  0  0  0  0
134135  2  0  0  0  0
134173  1  0  0  0  0
135180  1  0  0  0  0
136137  2  0  0  0  0
136141  1  0  0  0  0
137138  1  0  0  0  0
137183  1  0  0  0  0
138139  2  0  0  0  0
138167  1  0  0  0  0
139190  1  0  0  0  0
140142  1  0  0  0  0
141142  1  0  0  0  0
142117  1  0  0  0  0
143144  1  0  0  0  0
143145  1  0  0  0  0
143146  1  0  0  0  0
143147  1  0  0  0  0
143148  1  0  0  0  0
149150  1  0  0  0  0
149151  1  0  0  0  0
149152  1  0  0  0  0
149153  1  0  0  0  0
149154  1  0  0  0  0
155156  1  0  0  0  0
155157  1  0  0  0  0
155158  1  0  0  0  0
155159  1  0  0  0  0
155160  1  0  0  0  0
161162  1  0  0  0  0
161163  1  0  0  0  0
161164  1  0  0  0  0
161165  1  0  0  0  0
161166  1  0  0  0  0
167168  1  0  0  0  0
167169  1  0  0  0  0
167170  1  0  0  0  0
167171  1  0  0  0  0
167172  1  0  0  0  0
173174  1  0  0  0  0
173175  1  0  0  0  0
173176  1  0  0  0  0
173177  1  0  0  0  0
173178  1  0  0  0  0
M  CHG  1  13   1
M  CHG  1  47  -1
M  CHG  1 108   1
M  CHG  1 142  -1
M  END
