 energy: -124.298097628917 gnorm: 0.000170466040 xtb: 6.7.1 (edcfbbe)
          03032512573D

 96100  0     0  0            999 V2000
   -0.0409    3.5853   -3.8300 C   0  0  0  0  0  0  0  0  0  0  0  0
    1.8651   -2.6240   -0.5467 C   0  0  0  0  0  0  0  0  0  0  0  0
   -4.3197    1.1319   -2.7849 C   0  0  0  0  0  0  0  0  0  0  0  0
   -3.3313    0.3822   -2.1925 C   0  0  0  0  0  0  0  0  0  0  0  0
   -2.0054    0.8976   -2.1068 C   0  0  0  0  0  0  0  0  0  0  0  0
   -1.6807    2.0536   -2.8600 C   0  0  0  0  0  0  0  0  0  0  0  0
   -2.7325    2.8209   -3.3814 C   0  0  0  0  0  0  0  0  0  0  0  0
   -4.0435    2.3967   -3.3207 C   0  0  0  0  0  0  0  0  0  0  0  0
   -0.9869    0.2778   -1.3367 C   0  0  0  0  0  0  0  0  0  0  0  0
    0.3450    0.5378   -1.6996 C   0  0  0  0  0  0  0  0  0  0  0  0
    0.6623    1.6408   -2.5360 C   0  0  0  0  0  0  0  0  0  0  0  0
   -0.3634    2.4076   -3.0404 N   0  0  0  0  0  0  0  0  0  0  0  0
   -1.1897   -0.5489   -0.1934 C   0  0  0  0  0  0  0  0  0  0  0  0
   -0.1717   -1.4684    0.1574 C   0  0  0  0  0  0  0  0  0  0  0  0
    1.0269   -1.4376   -0.5166 N   0  0  0  0  0  0  0  0  0  0  0  0
    1.3817   -0.3109   -1.2223 C   0  0  0  0  0  0  0  0  0  0  0  0
    2.7003    0.0129   -1.5006 C   0  0  0  0  0  0  0  0  0  0  0  0
    3.0253    1.1438   -2.2432 C   0  0  0  0  0  0  0  0  0  0  0  0
    2.0072    1.9328   -2.7591 C   0  0  0  0  0  0  0  0  0  0  0  0
   -2.3192   -0.4427    0.6627 C   0  0  0  0  0  0  0  0  0  0  0  0
   -2.4990   -1.3544    1.6827 C   0  0  0  0  0  0  0  0  0  0  0  0
   -1.5653   -2.3629    1.9307 C   0  0  0  0  0  0  0  0  0  0  0  0
   -0.3990   -2.3820    1.1876 C   0  0  0  0  0  0  0  0  0  0  0  0
   -3.1257    0.6233    0.4552 O   0  0  0  0  0  0  0  0  0  0  0  0
   -3.5035   -0.8758   -1.7299 O   0  0  0  0  0  0  0  0  0  0  0  0
   -5.3247    0.7508   -2.8323 H   0  0  0  0  0  0  0  0  0  0  0  0
   -2.5309    3.7716   -3.8345 H   0  0  0  0  0  0  0  0  0  0  0  0
   -3.3683   -1.2761    2.3094 H   0  0  0  0  0  0  0  0  0  0  0  0
    0.3652   -3.0934    1.4425 H   0  0  0  0  0  0  0  0  0  0  0  0
    3.4952   -0.5870   -1.0935 H   0  0  0  0  0  0  0  0  0  0  0  0
    2.2862    2.7958   -3.3304 H   0  0  0  0  0  0  0  0  0  0  0  0
    1.1486   -3.7900   -1.2380 C   0  0  0  0  0  0  0  0  0  0  0  0
    2.0303   -5.0318   -1.2543 C   0  0  0  0  0  0  0  0  0  0  0  0
    0.1079    4.8347   -2.9588 C   0  0  0  0  0  0  0  0  0  0  0  0
    0.4452    6.0549   -3.8051 C   0  0  0  0  0  0  0  0  0  0  0  0
   -4.2109    0.8485    1.3263 C   0  0  0  0  0  0  0  0  0  0  0  0
   -4.7772   -1.4718   -1.8216 C   0  0  0  0  0  0  0  0  0  0  0  0
   -5.1949    3.2304   -3.8534 C   0  0  0  0  0  0  0  0  0  0  0  0
   -5.8816    2.4671   -4.9957 C   0  0  0  0  0  0  0  0  0  0  0  0
   -6.1928    3.4717   -2.7111 C   0  0  0  0  0  0  0  0  0  0  0  0
   -4.7488    4.5927   -4.3913 C   0  0  0  0  0  0  0  0  0  0  0  0
   -1.7661   -3.4020    3.0204 C   0  0  0  0  0  0  0  0  0  0  0  0
   -1.6696   -4.8007    2.3923 C   0  0  0  0  0  0  0  0  0  0  0  0
   -3.1280   -3.2842    3.7094 C   0  0  0  0  0  0  0  0  0  0  0  0
   -0.6723   -3.2316    4.0846 C   0  0  0  0  0  0  0  0  0  0  0  0
    4.4918    1.4804   -2.4567 C   0  0  0  0  0  0  0  0  0  0  0  0
    4.7018    2.7343   -3.3098 C   0  0  0  0  0  0  0  0  0  0  0  0
    5.1766    0.3028   -3.1662 C   0  0  0  0  0  0  0  0  0  0  0  0
    5.1468    1.7198   -1.0883 C   0  0  0  0  0  0  0  0  0  0  0  0
    6.2147    0.5505   -3.3712 H   0  0  0  0  0  0  0  0  0  0  0  0
    4.6815    0.0901   -4.1113 H   0  0  0  0  0  0  0  0  0  0  0  0
    5.1613   -0.5981   -2.5598 H   0  0  0  0  0  0  0  0  0  0  0  0
    5.7680    2.9139   -3.4223 H   0  0  0  0  0  0  0  0  0  0  0  0
    4.2686    3.6129   -2.8372 H   0  0  0  0  0  0  0  0  0  0  0  0
    4.2815    2.6104   -4.3054 H   0  0  0  0  0  0  0  0  0  0  0  0
    6.1941    1.9778   -1.2218 H   0  0  0  0  0  0  0  0  0  0  0  0
    5.0944    0.8379   -0.4563 H   0  0  0  0  0  0  0  0  0  0  0  0
    4.6538    2.5403   -0.5715 H   0  0  0  0  0  0  0  0  0  0  0  0
   -0.8235   -3.9498    4.8862 H   0  0  0  0  0  0  0  0  0  0  0  0
   -0.7088   -2.2305    4.5084 H   0  0  0  0  0  0  0  0  0  0  0  0
    0.3191   -3.3914    3.6704 H   0  0  0  0  0  0  0  0  0  0  0  0
   -3.2291   -4.0811    4.4419 H   0  0  0  0  0  0  0  0  0  0  0  0
   -3.9409   -3.3848    2.9938 H   0  0  0  0  0  0  0  0  0  0  0  0
   -3.2246   -2.3384    4.2372 H   0  0  0  0  0  0  0  0  0  0  0  0
   -5.6219    5.1486   -4.7237 H   0  0  0  0  0  0  0  0  0  0  0  0
   -4.0844    4.4825   -5.2453 H   0  0  0  0  0  0  0  0  0  0  0  0
   -4.2560    5.1802   -3.6201 H   0  0  0  0  0  0  0  0  0  0  0  0
   -7.0217    4.0778   -3.0674 H   0  0  0  0  0  0  0  0  0  0  0  0
   -5.7080    3.9993   -1.8924 H   0  0  0  0  0  0  0  0  0  0  0  0
   -6.5973    2.5397   -2.3271 H   0  0  0  0  0  0  0  0  0  0  0  0
   -6.6809    3.0732   -5.4143 H   0  0  0  0  0  0  0  0  0  0  0  0
   -6.3139    1.5316   -4.6532 H   0  0  0  0  0  0  0  0  0  0  0  0
   -5.1678    2.2462   -5.7862 H   0  0  0  0  0  0  0  0  0  0  0  0
   -1.8488   -5.5585    3.1504 H   0  0  0  0  0  0  0  0  0  0  0  0
   -0.6891   -4.9825    1.9617 H   0  0  0  0  0  0  0  0  0  0  0  0
   -2.4157   -4.9158    1.6089 H   0  0  0  0  0  0  0  0  0  0  0  0
    2.1702   -2.9039    0.4654 H   0  0  0  0  0  0  0  0  0  0  0  0
    2.7654   -2.4034   -1.1161 H   0  0  0  0  0  0  0  0  0  0  0  0
    0.9078   -3.4945   -2.2614 H   0  0  0  0  0  0  0  0  0  0  0  0
    0.2101   -4.0113   -0.7284 H   0  0  0  0  0  0  0  0  0  0  0  0
    2.9601   -4.8391   -1.7840 H   0  0  0  0  0  0  0  0  0  0  0  0
    1.5175   -5.8495   -1.7523 H   0  0  0  0  0  0  0  0  0  0  0  0
    2.2717   -5.3467   -0.2417 H   0  0  0  0  0  0  0  0  0  0  0  0
   -4.6869    1.7590    0.9654 H   0  0  0  0  0  0  0  0  0  0  0  0
   -3.8740    1.0002    2.3556 H   0  0  0  0  0  0  0  0  0  0  0  0
   -4.9319    0.0263    1.2958 H   0  0  0  0  0  0  0  0  0  0  0  0
   -4.6653   -2.4649   -1.3897 H   0  0  0  0  0  0  0  0  0  0  0  0
   -5.1020   -1.5655   -2.8619 H   0  0  0  0  0  0  0  0  0  0  0  0
   -5.5263   -0.9117   -1.2542 H   0  0  0  0  0  0  0  0  0  0  0  0
   -0.8157    3.7365   -4.5807 H   0  0  0  0  0  0  0  0  0  0  0  0
    0.8787    3.4014   -4.3854 H   0  0  0  0  0  0  0  0  0  0  0  0
    0.8947    4.6662   -2.2207 H   0  0  0  0  0  0  0  0  0  0  0  0
   -0.8231    5.0064   -2.4149 H   0  0  0  0  0  0  0  0  0  0  0  0
    1.3811    5.9076   -4.3389 H   0  0  0  0  0  0  0  0  0  0  0  0
    0.5467    6.9338   -3.1751 H   0  0  0  0  0  0  0  0  0  0  0  0
   -0.3380    6.2468   -4.5348 H   0  0  0  0  0  0  0  0  0  0  0  0
  1 34  1  0  0  0  0
  1 90  1  0  0  0  0
  1 91  1  0  0  0  0
  2 32  1  0  0  0  0
  2 77  1  0  0  0  0
  2 78  1  0  0  0  0
  3  4  2  0  0  0  0
  3 26  1  0  0  0  0
  4  5  1  0  0  0  0
  4 25  1  0  0  0  0
  5  6  2  0  0  0  0
  5  9  1  0  0  0  0
  6  7  1  0  0  0  0
  7  8  2  0  0  0  0
  7 27  1  0  0  0  0
  8 38  1  0  0  0  0
  8  3  1  0  0  0  0
  9 10  1  0  0  0  0
 10 11  2  0  0  0  0
 11 12  1  0  0  0  0
 12  1  1  0  0  0  0
 12  6  1  0  0  0  0
 13 14  2  0  0  0  0
 13 20  1  0  0  0  0
 13  9  1  0  0  0  0
 14 15  1  0  0  0  0
 15  2  1  0  0  0  0
 15 16  1  0  0  0  0
 16 10  1  0  0  0  0
 16 17  2  0  0  0  0
 17 18  1  0  0  0  0
 17 30  1  0  0  0  0
 18 46  1  0  0  0  0
 18 19  2  0  0  0  0
 19 11  1  0  0  0  0
 19 31  1  0  0  0  0
 20 21  2  0  0  0  0
 21 22  1  0  0  0  0
 21 28  1  0  0  0  0
 22 42  1  0  0  0  0
 22 23  2  0  0  0  0
 23 14  1  0  0  0  0
 23 29  1  0  0  0  0
 24 36  1  0  0  0  0
 24 20  1  0  0  0  0
 25 37  1  0  0  0  0
 32 33  1  0  0  0  0
 32 79  1  0  0  0  0
 32 80  1  0  0  0  0
 33 81  1  0  0  0  0
 33 82  1  0  0  0  0
 33 83  1  0  0  0  0
 34 35  1  0  0  0  0
 34 92  1  0  0  0  0
 34 93  1  0  0  0  0
 35 94  1  0  0  0  0
 35 95  1  0  0  0  0
 35 96  1  0  0  0  0
 36 84  1  0  0  0  0
 36 85  1  0  0  0  0
 36 86  1  0  0  0  0
 37 87  1  0  0  0  0
 37 88  1  0  0  0  0
 37 89  1  0  0  0  0
 38 39  1  0  0  0  0
 38 40  1  0  0  0  0
 38 41  1  0  0  0  0
 39 71  1  0  0  0  0
 39 72  1  0  0  0  0
 39 73  1  0  0  0  0
 40 68  1  0  0  0  0
 40 69  1  0  0  0  0
 40 70  1  0  0  0  0
 41 65  1  0  0  0  0
 41 66  1  0  0  0  0
 41 67  1  0  0  0  0
 42 43  1  0  0  0  0
 42 44  1  0  0  0  0
 42 45  1  0  0  0  0
 43 74  1  0  0  0  0
 43 75  1  0  0  0  0
 43 76  1  0  0  0  0
 44 62  1  0  0  0  0
 44 63  1  0  0  0  0
 44 64  1  0  0  0  0
 45 59  1  0  0  0  0
 45 60  1  0  0  0  0
 45 61  1  0  0  0  0
 46 47  1  0  0  0  0
 46 48  1  0  0  0  0
 46 49  1  0  0  0  0
 47 53  1  0  0  0  0
 47 54  1  0  0  0  0
 47 55  1  0  0  0  0
 48 50  1  0  0  0  0
 48 51  1  0  0  0  0
 48 52  1  0  0  0  0
 49 56  1  0  0  0  0
 49 57  1  0  0  0  0
 49 58  1  0  0  0  0
M  CHG  1   1   1
M  END
