 energy: -209.297109960102 gnorm: 0.000244390044 xtb: 6.7.1 (edcfbbe)
          03112514013D

141152  0     0  0            999 V2000
   -2.1218   -3.0437    1.6914 C   0  0  0  0  0  0  0  0  0  0  0  0
   -2.2118   -1.7297    1.2300 C   0  0  0  0  0  0  0  0  0  0  0  0
   -2.9090   -1.4197    0.0317 C   0  0  0  0  0  0  0  0  0  0  0  0
   -3.3839   -2.5468   -0.6923 C   0  0  0  0  0  0  0  0  0  0  0  0
   -3.2112   -3.8446   -0.2379 C   0  0  0  0  0  0  0  0  0  0  0  0
   -2.6104   -4.1264    0.9822 C   0  0  0  0  0  0  0  0  0  0  0  0
   -3.2648   -0.0933   -0.3849 C   0  0  0  0  0  0  0  0  0  0  0  0
   -4.3679   -0.0102   -1.3018 C   0  0  0  0  0  0  0  0  0  0  0  0
   -4.7443   -1.0948   -2.1220 C   0  0  0  0  0  0  0  0  0  0  0  0
   -4.1181   -2.4040   -1.9505 C   0  0  0  0  0  0  0  0  0  0  0  0
   -2.7134    1.1677    0.0571 C   0  0  0  0  0  0  0  0  0  0  0  0
   -3.5483    2.3174    0.0109 C   0  0  0  0  0  0  0  0  0  0  0  0
   -4.9011    2.2897   -0.5503 C   0  0  0  0  0  0  0  0  0  0  0  0
   -5.1554    1.1500   -1.4286 C   0  0  0  0  0  0  0  0  0  0  0  0
   -6.1992    1.2341   -2.3425 C   0  0  0  0  0  0  0  0  0  0  0  0
   -6.5020    0.1942   -3.2086 C   0  0  0  0  0  0  0  0  0  0  0  0
   -5.7559   -0.9693   -3.0635 C   0  0  0  0  0  0  0  0  0  0  0  0
   -1.3625    1.4238    0.4319 C   0  0  0  0  0  0  0  0  0  0  0  0
   -0.9471    2.7207    0.7563 C   0  0  0  0  0  0  0  0  0  0  0  0
   -1.7947    3.8143    0.7641 C   0  0  0  0  0  0  0  0  0  0  0  0
   -3.1098    3.5742    0.3959 C   0  0  0  0  0  0  0  0  0  0  0  0
   -1.6034   -0.7932    1.9692 O   0  0  0  0  0  0  0  0  0  0  0  0
   -0.3905    0.5001    0.3888 O   0  0  0  0  0  0  0  0  0  0  0  0
   -0.2501   -0.4903    1.4559 B   0  0  0  0  0  0  0  0  0  0  0  0
    1.8013   -3.3922    1.4145 C   0  0  0  0  0  0  0  0  0  0  0  0
    1.6221   -2.0514    1.0549 C   0  0  0  0  0  0  0  0  0  0  0  0
    2.7474   -1.2490    0.7106 C   0  0  0  0  0  0  0  0  0  0  0  0
    3.9221   -2.0039    0.4345 C   0  0  0  0  0  0  0  0  0  0  0  0
    4.0631   -3.3365    0.8059 C   0  0  0  0  0  0  0  0  0  0  0  0
    3.0216   -4.0457    1.3789 C   0  0  0  0  0  0  0  0  0  0  0  0
    2.8263    0.1930    0.5705 C   0  0  0  0  0  0  0  0  0  0  0  0
    3.7907    0.6738   -0.3786 C   0  0  0  0  0  0  0  0  0  0  0  0
    4.7537   -0.1627   -0.9750 C   0  0  0  0  0  0  0  0  0  0  0  0
    2.2544    1.1795    1.4316 C   0  0  0  0  0  0  0  0  0  0  0  0
    2.6865    2.5341    1.3265 C   0  0  0  0  0  0  0  0  0  0  0  0
    3.2200    3.0490    0.0651 C   0  0  0  0  0  0  0  0  0  0  0  0
    3.8466    2.0302   -0.7690 C   0  0  0  0  0  0  0  0  0  0  0  0
    4.6287    2.4372   -1.8409 C   0  0  0  0  0  0  0  0  0  0  0  0
    5.4639    1.5637   -2.5277 C   0  0  0  0  0  0  0  0  0  0  0  0
    5.5591    0.2764   -2.0193 C   0  0  0  0  0  0  0  0  0  0  0  0
    1.3882    0.9517    2.5487 C   0  0  0  0  0  0  0  0  0  0  0  0
    1.4040    1.8313    3.6329 C   0  0  0  0  0  0  0  0  0  0  0  0
    2.0677    3.0487    3.6118 C   0  0  0  0  0  0  0  0  0  0  0  0
    2.6132    3.4231    2.3892 C   0  0  0  0  0  0  0  0  0  0  0  0
    0.5367   -0.0543    2.6318 O   0  0  0  0  0  0  0  0  0  0  0  0
    0.3464   -1.6992    0.9363 O   0  0  0  0  0  0  0  0  0  0  0  0
    5.0147   -1.4717   -0.3809 C   0  0  0  0  0  0  0  0  0  0  0  0
    3.2100    4.2445   -0.2185 O   0  0  0  0  0  0  0  0  0  0  0  0
    6.0546   -2.0900   -0.5965 O   0  0  0  0  0  0  0  0  0  0  0  0
   -4.2823   -3.3287   -2.7422 O   0  0  0  0  0  0  0  0  0  0  0  0
   -5.7222    3.1861   -0.3771 O   0  0  0  0  0  0  0  0  0  0  0  0
   -2.5098   -5.5652    1.4582 C   0  0  0  0  0  0  0  0  0  0  0  0
   -1.7467   -5.6948    2.7784 C   0  0  0  0  0  0  0  0  0  0  0  0
   -1.7849   -6.3942    0.3885 C   0  0  0  0  0  0  0  0  0  0  0  0
   -3.9291   -6.1142    1.6631 C   0  0  0  0  0  0  0  0  0  0  0  0
   -1.3660    5.2273    1.1164 C   0  0  0  0  0  0  0  0  0  0  0  0
   -1.6525    6.1509   -0.0760 C   0  0  0  0  0  0  0  0  0  0  0  0
   -2.1755    5.6885    2.3374 C   0  0  0  0  0  0  0  0  0  0  0  0
    0.1206    5.3251    1.4524 C   0  0  0  0  0  0  0  0  0  0  0  0
   -7.5982    0.2659   -4.2576 C   0  0  0  0  0  0  0  0  0  0  0  0
   -6.9786    0.0166   -5.6397 C   0  0  0  0  0  0  0  0  0  0  0  0
   -8.2961    1.6281   -4.2792 C   0  0  0  0  0  0  0  0  0  0  0  0
   -8.6475   -0.8136   -3.9579 C   0  0  0  0  0  0  0  0  0  0  0  0
    3.1560   -5.4689    1.8909 C   0  0  0  0  0  0  0  0  0  0  0  0
    2.2612   -6.3970    1.0600 C   0  0  0  0  0  0  0  0  0  0  0  0
    2.7174   -5.5055    3.3614 C   0  0  0  0  0  0  0  0  0  0  0  0
    4.5971   -5.9790    1.8057 C   0  0  0  0  0  0  0  0  0  0  0  0
    2.1260    3.9120    4.8597 C   0  0  0  0  0  0  0  0  0  0  0  0
    2.8531    3.1146    5.9525 C   0  0  0  0  0  0  0  0  0  0  0  0
    2.8872    5.2193    4.6243 C   0  0  0  0  0  0  0  0  0  0  0  0
    0.7087    4.2570    5.3367 C   0  0  0  0  0  0  0  0  0  0  0  0
    6.2679    2.0581   -3.7173 C   0  0  0  0  0  0  0  0  0  0  0  0
    7.2323    3.1563   -3.2481 C   0  0  0  0  0  0  0  0  0  0  0  0
    7.0833    0.9404   -4.3724 C   0  0  0  0  0  0  0  0  0  0  0  0
    5.3014    2.6292   -4.7642 C   0  0  0  0  0  0  0  0  0  0  0  0
    7.6013    1.3305   -5.2472 H   0  0  0  0  0  0  0  0  0  0  0  0
    6.4368    0.1275   -4.6944 H   0  0  0  0  0  0  0  0  0  0  0  0
    7.8297    0.5471   -3.6865 H   0  0  0  0  0  0  0  0  0  0  0  0
    7.8257    3.5196   -4.0855 H   0  0  0  0  0  0  0  0  0  0  0  0
    7.9068    2.7639   -2.4896 H   0  0  0  0  0  0  0  0  0  0  0  0
    6.6913    3.9960   -2.8208 H   0  0  0  0  0  0  0  0  0  0  0  0
    5.8537    2.9896   -5.6305 H   0  0  0  0  0  0  0  0  0  0  0  0
    4.7248    3.4552   -4.3579 H   0  0  0  0  0  0  0  0  0  0  0  0
    4.6068    1.8588   -5.0926 H   0  0  0  0  0  0  0  0  0  0  0  0
    2.9332    5.7876    5.5520 H   0  0  0  0  0  0  0  0  0  0  0  0
    2.3879    5.8307    3.8771 H   0  0  0  0  0  0  0  0  0  0  0  0
    3.9047    5.0218    4.2955 H   0  0  0  0  0  0  0  0  0  0  0  0
    0.7558    4.8408    6.2547 H   0  0  0  0  0  0  0  0  0  0  0  0
    0.1282    3.3598    5.5310 H   0  0  0  0  0  0  0  0  0  0  0  0
    0.1882    4.8439    4.5838 H   0  0  0  0  0  0  0  0  0  0  0  0
    2.9255    3.7030    6.8658 H   0  0  0  0  0  0  0  0  0  0  0  0
    3.8586    2.8588    5.6245 H   0  0  0  0  0  0  0  0  0  0  0  0
    2.3241    2.1926    6.1768 H   0  0  0  0  0  0  0  0  0  0  0  0
   -1.8793    6.6951    2.6287 H   0  0  0  0  0  0  0  0  0  0  0  0
   -2.0003    5.0174    3.1760 H   0  0  0  0  0  0  0  0  0  0  0  0
   -3.2408    5.6922    2.1236 H   0  0  0  0  0  0  0  0  0  0  0  0
   -1.3433    7.1684    0.1573 H   0  0  0  0  0  0  0  0  0  0  0  0
   -2.7096    6.1627   -0.3263 H   0  0  0  0  0  0  0  0  0  0  0  0
   -1.0967    5.8129   -0.9477 H   0  0  0  0  0  0  0  0  0  0  0  0
    0.3691    6.3522    1.7173 H   0  0  0  0  0  0  0  0  0  0  0  0
    0.7401    5.0383    0.6067 H   0  0  0  0  0  0  0  0  0  0  0  0
    0.3646    4.6842    2.2941 H   0  0  0  0  0  0  0  0  0  0  0  0
   -9.4477   -0.7767   -4.6954 H   0  0  0  0  0  0  0  0  0  0  0  0
   -9.0780   -0.6541   -2.9713 H   0  0  0  0  0  0  0  0  0  0  0  0
   -8.2062   -1.8060   -3.9802 H   0  0  0  0  0  0  0  0  0  0  0  0
   -9.0581    1.6358   -5.0571 H   0  0  0  0  0  0  0  0  0  0  0  0
   -7.5869    2.4245   -4.4916 H   0  0  0  0  0  0  0  0  0  0  0  0
   -8.7818    1.8326   -3.3281 H   0  0  0  0  0  0  0  0  0  0  0  0
   -7.7452    0.0660   -6.4113 H   0  0  0  0  0  0  0  0  0  0  0  0
   -6.5061   -0.9604   -5.6878 H   0  0  0  0  0  0  0  0  0  0  0  0
   -6.2235    0.7704   -5.8532 H   0  0  0  0  0  0  0  0  0  0  0  0
    2.3714   -7.4273    1.3946 H   0  0  0  0  0  0  0  0  0  0  0  0
    2.5359   -6.3420    0.0089 H   0  0  0  0  0  0  0  0  0  0  0  0
    1.2169   -6.1170    1.1544 H   0  0  0  0  0  0  0  0  0  0  0  0
    2.7865   -6.5197    3.7515 H   0  0  0  0  0  0  0  0  0  0  0  0
    1.6928   -5.1634    3.4739 H   0  0  0  0  0  0  0  0  0  0  0  0
    3.3572   -4.8594    3.9587 H   0  0  0  0  0  0  0  0  0  0  0  0
    4.6578   -6.9777    2.2357 H   0  0  0  0  0  0  0  0  0  0  0  0
    5.2716   -5.3285    2.3572 H   0  0  0  0  0  0  0  0  0  0  0  0
    4.9297   -6.0355    0.7723 H   0  0  0  0  0  0  0  0  0  0  0  0
   -1.6928   -6.7426    3.0710 H   0  0  0  0  0  0  0  0  0  0  0  0
   -2.2464   -5.1458    3.5729 H   0  0  0  0  0  0  0  0  0  0  0  0
   -0.7317   -5.3196    2.6782 H   0  0  0  0  0  0  0  0  0  0  0  0
   -3.8891   -7.1538    1.9845 H   0  0  0  0  0  0  0  0  0  0  0  0
   -4.5038   -6.0594    0.7427 H   0  0  0  0  0  0  0  0  0  0  0  0
   -4.4492   -5.5353    2.4237 H   0  0  0  0  0  0  0  0  0  0  0  0
   -1.6048   -7.4057    0.7495 H   0  0  0  0  0  0  0  0  0  0  0  0
   -0.8302   -5.9354    0.1418 H   0  0  0  0  0  0  0  0  0  0  0  0
   -2.3713   -6.4569   -0.5234 H   0  0  0  0  0  0  0  0  0  0  0  0
   -3.5916   -4.6290   -0.8752 H   0  0  0  0  0  0  0  0  0  0  0  0
   -1.6043   -3.1609    2.6297 H   0  0  0  0  0  0  0  0  0  0  0  0
   -5.9501   -1.8420   -3.6704 H   0  0  0  0  0  0  0  0  0  0  0  0
   -6.7561    2.1581   -2.3411 H   0  0  0  0  0  0  0  0  0  0  0  0
   -3.8400    4.3686    0.3506 H   0  0  0  0  0  0  0  0  0  0  0  0
    0.0986    2.8288    0.9921 H   0  0  0  0  0  0  0  0  0  0  0  0
    0.8131    1.5269    4.4830 H   0  0  0  0  0  0  0  0  0  0  0  0
    3.0104    4.4100    2.2159 H   0  0  0  0  0  0  0  0  0  0  0  0
    0.8979   -3.9058    1.7042 H   0  0  0  0  0  0  0  0  0  0  0  0
    5.0191   -3.7865    0.5913 H   0  0  0  0  0  0  0  0  0  0  0  0
    4.5835    3.4874   -2.0913 H   0  0  0  0  0  0  0  0  0  0  0  0
    6.2718   -0.4374   -2.4018 H   0  0  0  0  0  0  0  0  0  0  0  0
  1  2  2  0  0  0  0
  1131  1  0  0  0  0
  2  3  1  0  0  0  0
  2 22  1  0  0  0  0
  3  4  2  0  0  0  0
  4  5  1  0  0  0  0
  5  6  2  0  0  0  0
  5130  1  0  0  0  0
  6 52  1  0  0  0  0
  6  1  1  0  0  0  0
  7  3  1  0  0  0  0
  7  8  1  0  0  0  0
  7 11  1  0  0  0  0
  8  9  2  0  0  0  0
  9 10  1  0  0  0  0
 10  4  1  0  0  0  0
 10 50  2  0  0  0  0
 11 12  2  0  0  0  0
 11 18  1  0  0  0  0
 13 14  1  0  0  0  0
 13 12  1  0  0  0  0
 13 51  2  0  0  0  0
 14  8  1  0  0  0  0
 14 15  2  0  0  0  0
 15 16  1  0  0  0  0
 15133  1  0  0  0  0
 16 60  1  0  0  0  0
 16 17  2  0  0  0  0
 17  9  1  0  0  0  0
 17132  1  0  0  0  0
 18 19  2  0  0  0  0
 18 23  1  0  0  0  0
 19 20  1  0  0  0  0
 19135  1  0  0  0  0
 20 56  1  0  0  0  0
 20 21  2  0  0  0  0
 21 12  1  0  0  0  0
 21134  1  0  0  0  0
 24 23  1  0  0  0  0
 24 22  1  0  0  0  0
 25 26  2  0  0  0  0
 25138  1  0  0  0  0
 26 27  1  0  0  0  0
 26 46  1  0  0  0  0
 27 28  2  0  0  0  0
 28 29  1  0  0  0  0
 28 47  1  0  0  0  0
 29 30  2  0  0  0  0
 29139  1  0  0  0  0
 30 64  1  0  0  0  0
 30 25  1  0  0  0  0
 31 27  1  0  0  0  0
 31 32  1  0  0  0  0
 32 33  2  0  0  0  0
 34 35  2  0  0  0  0
 34 41  1  0  0  0  0
 34 31  1  0  0  0  0
 36 37  1  0  0  0  0
 36 35  1  0  0  0  0
 36 48  2  0  0  0  0
 37 32  1  0  0  0  0
 37 38  2  0  0  0  0
 38 39  1  0  0  0  0
 38140  1  0  0  0  0
 39 72  1  0  0  0  0
 39 40  2  0  0  0  0
 40 33  1  0  0  0  0
 40141  1  0  0  0  0
 41 42  2  0  0  0  0
 41 45  1  0  0  0  0
 42 43  1  0  0  0  0
 42136  1  0  0  0  0
 43 68  1  0  0  0  0
 43 44  2  0  0  0  0
 44 35  1  0  0  0  0
 44137  1  0  0  0  0
 45 24  1  0  0  0  0
 46 24  1  0  0  0  0
 47 33  1  0  0  0  0
 47 49  2  0  0  0  0
 52 53  1  0  0  0  0
 52 54  1  0  0  0  0
 52 55  1  0  0  0  0
 53121  1  0  0  0  0
 53122  1  0  0  0  0
 53123  1  0  0  0  0
 54127  1  0  0  0  0
 54128  1  0  0  0  0
 54129  1  0  0  0  0
 55124  1  0  0  0  0
 55125  1  0  0  0  0
 55126  1  0  0  0  0
 56 57  1  0  0  0  0
 56 58  1  0  0  0  0
 56 59  1  0  0  0  0
 57 97  1  0  0  0  0
 57 98  1  0  0  0  0
 57 99  1  0  0  0  0
 58 94  1  0  0  0  0
 58 95  1  0  0  0  0
 58 96  1  0  0  0  0
 59100  1  0  0  0  0
 59101  1  0  0  0  0
 59102  1  0  0  0  0
 60 61  1  0  0  0  0
 60 62  1  0  0  0  0
 60 63  1  0  0  0  0
 61109  1  0  0  0  0
 61110  1  0  0  0  0
 61111  1  0  0  0  0
 62106  1  0  0  0  0
 62107  1  0  0  0  0
 62108  1  0  0  0  0
 63103  1  0  0  0  0
 63104  1  0  0  0  0
 63105  1  0  0  0  0
 64 65  1  0  0  0  0
 64 66  1  0  0  0  0
 64 67  1  0  0  0  0
 65112  1  0  0  0  0
 65113  1  0  0  0  0
 65114  1  0  0  0  0
 66115  1  0  0  0  0
 66116  1  0  0  0  0
 66117  1  0  0  0  0
 67118  1  0  0  0  0
 67119  1  0  0  0  0
 67120  1  0  0  0  0
 68 69  1  0  0  0  0
 68 70  1  0  0  0  0
 68 71  1  0  0  0  0
 69 91  1  0  0  0  0
 69 92  1  0  0  0  0
 69 93  1  0  0  0  0
 70 85  1  0  0  0  0
 70 86  1  0  0  0  0
 70 87  1  0  0  0  0
 71 88  1  0  0  0  0
 71 89  1  0  0  0  0
 71 90  1  0  0  0  0
 72 73  1  0  0  0  0
 72 74  1  0  0  0  0
 72 75  1  0  0  0  0
 73 79  1  0  0  0  0
 73 80  1  0  0  0  0
 73 81  1  0  0  0  0
 74 76  1  0  0  0  0
 74 77  1  0  0  0  0
 74 78  1  0  0  0  0
 75 82  1  0  0  0  0
 75 83  1  0  0  0  0
 75 84  1  0  0  0  0
M  CHG  1  24  -1
M  END
