 energy: -218.789068819867 gnorm: 0.000892170132 xtb: 6.7.1 (edcfbbe)
          02282515453D

115126  0     0  0            999 V2000
    0.0568    3.3299    2.5308 C   0  0  0  0  0  0  0  0  0  0  0  0
    0.6368    2.1229    2.1622 C   0  0  0  0  0  0  0  0  0  0  0  0
    1.9686    2.1024    1.6662 C   0  0  0  0  0  0  0  0  0  0  0  0
    2.6183    3.3728    1.4912 C   0  0  0  0  0  0  0  0  0  0  0  0
    1.9095    4.5820    1.6895 C   0  0  0  0  0  0  0  0  0  0  0  0
    0.6640    4.5473    2.2403 C   0  0  0  0  0  0  0  0  0  0  0  0
    2.7634    0.9162    1.5087 C   0  0  0  0  0  0  0  0  0  0  0  0
    4.1605    1.1425    1.5015 C   0  0  0  0  0  0  0  0  0  0  0  0
    4.6879    2.4497    1.2730 C   0  0  0  0  0  0  0  0  0  0  0  0
    3.9078    3.5208    1.1864 N   0  0  0  0  0  0  0  0  0  0  0  0
    2.3530   -0.4677    1.4195 C   0  0  0  0  0  0  0  0  0  0  0  0
    3.3545   -1.4271    1.8151 C   0  0  0  0  0  0  0  0  0  0  0  0
    4.6330   -1.1414    2.0589 N   0  0  0  0  0  0  0  0  0  0  0  0
    5.0720    0.0774    1.7604 C   0  0  0  0  0  0  0  0  0  0  0  0
    6.4593    0.3155    1.7390 C   0  0  0  0  0  0  0  0  0  0  0  0
    6.9321    1.5702    1.4119 C   0  0  0  0  0  0  0  0  0  0  0  0
    6.0846    2.6243    1.1641 C   0  0  0  0  0  0  0  0  0  0  0  0
    1.1740   -0.9976    0.8192 C   0  0  0  0  0  0  0  0  0  0  0  0
    1.0531   -2.3883    0.6902 C   0  0  0  0  0  0  0  0  0  0  0  0
    1.9551   -3.2851    1.2301 C   0  0  0  0  0  0  0  0  0  0  0  0
    3.0862   -2.8173    1.8330 C   0  0  0  0  0  0  0  0  0  0  0  0
   -0.0787    1.0143    2.3426 O   0  0  0  0  0  0  0  0  0  0  0  0
   -0.3740    6.0439    2.3826 S   0  0  0  0  0  0  0  0  0  0  0  0
    1.7989   -5.0954    1.0527 S   0  0  0  0  0  0  0  0  0  0  0  0
    8.7422    1.8143    1.3905 S   0  0  0  0  0  0  0  0  0  0  0  0
   -1.6756   -2.7094    1.7991 C   0  0  0  0  0  0  0  0  0  0  0  0
   -2.2173   -1.5297    1.3033 C   0  0  0  0  0  0  0  0  0  0  0  0
   -3.1742   -1.5692    0.2498 C   0  0  0  0  0  0  0  0  0  0  0  0
   -3.3877   -2.8451   -0.3793 C   0  0  0  0  0  0  0  0  0  0  0  0
   -2.7237   -4.0042    0.0890 C   0  0  0  0  0  0  0  0  0  0  0  0
   -1.9340   -3.9325    1.1980 C   0  0  0  0  0  0  0  0  0  0  0  0
   -4.0348   -0.4837   -0.1342 C   0  0  0  0  0  0  0  0  0  0  0  0
   -5.0965   -0.8331   -1.0008 C   0  0  0  0  0  0  0  0  0  0  0  0
   -5.0933   -2.0833   -1.6917 C   0  0  0  0  0  0  0  0  0  0  0  0
   -4.2256   -3.0454   -1.3989 N   0  0  0  0  0  0  0  0  0  0  0  0
   -4.0604    0.8714    0.3670 C   0  0  0  0  0  0  0  0  0  0  0  0
   -5.3677    1.4814    0.3844 C   0  0  0  0  0  0  0  0  0  0  0  0
   -6.3939    1.0727   -0.3568 N   0  0  0  0  0  0  0  0  0  0  0  0
   -6.2188    0.0319   -1.1660 C   0  0  0  0  0  0  0  0  0  0  0  0
   -7.2020   -0.2703   -2.1271 C   0  0  0  0  0  0  0  0  0  0  0  0
   -7.0915   -1.4216   -2.8755 C   0  0  0  0  0  0  0  0  0  0  0  0
   -6.0743   -2.3299   -2.6755 C   0  0  0  0  0  0  0  0  0  0  0  0
   -2.9777    1.7202    0.7403 C   0  0  0  0  0  0  0  0  0  0  0  0
   -3.2606    2.9140    1.3995 C   0  0  0  0  0  0  0  0  0  0  0  0
   -4.5568    3.3265    1.6786 C   0  0  0  0  0  0  0  0  0  0  0  0
   -5.6126    2.6506    1.1452 C   0  0  0  0  0  0  0  0  0  0  0  0
   -1.8235   -0.3972    1.8788 O   0  0  0  0  0  0  0  0  0  0  0  0
   -1.1618   -5.4367    1.8517 S   0  0  0  0  0  0  0  0  0  0  0  0
   -4.8108    4.7772    2.7634 S   0  0  0  0  0  0  0  0  0  0  0  0
   -8.3688   -1.8470   -4.1092 S   0  0  0  0  0  0  0  0  0  0  0  0
   -0.8413    0.4690    1.2187 B   0  0  0  0  0  0  0  0  0  0  0  0
    8.9347    3.1290    0.8034 O   0  0  0  0  0  0  0  0  0  0  0  0
    8.9234    1.9710    3.0537 O   0  0  0  0  0  0  0  0  0  0  0  0
    8.4192    3.1523    3.6180 C   0  0  0  0  0  0  0  0  0  0  0  0
    0.3694   -5.1275    0.1099 O   0  0  0  0  0  0  0  0  0  0  0  0
    0.5109   -5.2526   -1.2801 C   0  0  0  0  0  0  0  0  0  0  0  0
    2.8676   -5.3843    0.0992 O   0  0  0  0  0  0  0  0  0  0  0  0
   -0.0393   -4.9479    2.6538 O   0  0  0  0  0  0  0  0  0  0  0  0
   -2.3790   -5.7954    2.9526 O   0  0  0  0  0  0  0  0  0  0  0  0
   -2.5115   -4.9524    4.0671 C   0  0  0  0  0  0  0  0  0  0  0  0
   -9.2095   -0.6658   -4.1993 O   0  0  0  0  0  0  0  0  0  0  0  0
   -9.1746   -2.9743   -3.1585 O   0  0  0  0  0  0  0  0  0  0  0  0
   -9.8719   -2.4588   -2.0555 C   0  0  0  0  0  0  0  0  0  0  0  0
   -6.1496    5.2385    2.4345 O   0  0  0  0  0  0  0  0  0  0  0  0
   -3.7065    5.7993    2.0358 O   0  0  0  0  0  0  0  0  0  0  0  0
   -4.0373    6.2578    0.7513 C   0  0  0  0  0  0  0  0  0  0  0  0
    0.5517    7.1624    2.4031 O   0  0  0  0  0  0  0  0  0  0  0  0
   -0.9579    5.9182    0.8025 O   0  0  0  0  0  0  0  0  0  0  0  0
   -0.1105    6.3723   -0.2150 C   0  0  0  0  0  0  0  0  0  0  0  0
    0.1703   -0.2164    0.2628 N   0  0  0  0  0  0  0  0  0  0  0  0
    0.8096   -0.6322   -2.0726 C   0  0  0  0  0  0  0  0  0  0  0  0
   -0.3140   -0.6359   -1.0377 C   0  0  0  0  0  0  0  0  0  0  0  0
   -1.6536    1.4688    0.3870 N   0  0  0  0  0  0  0  0  0  0  0  0
   -1.7095    2.8138   -1.6809 C   0  0  0  0  0  0  0  0  0  0  0  0
   -1.0045    2.5329   -0.3511 C   0  0  0  0  0  0  0  0  0  0  0  0
   -2.9758   -5.5321    4.8657 H   0  0  0  0  0  0  0  0  0  0  0  0
   -3.1358   -4.0851    3.8294 H   0  0  0  0  0  0  0  0  0  0  0  0
   -1.5232   -4.6105    4.3897 H   0  0  0  0  0  0  0  0  0  0  0  0
   -0.0606   -6.1176   -1.6210 H   0  0  0  0  0  0  0  0  0  0  0  0
    1.5719   -5.3977   -1.5156 H   0  0  0  0  0  0  0  0  0  0  0  0
    0.1457   -4.3508   -1.7780 H   0  0  0  0  0  0  0  0  0  0  0  0
    8.9689    3.3361    4.5406 H   0  0  0  0  0  0  0  0  0  0  0  0
    7.3506    3.0562    3.8358 H   0  0  0  0  0  0  0  0  0  0  0  0
    8.5733    3.9898    2.9290 H   0  0  0  0  0  0  0  0  0  0  0  0
    0.4063   -0.8568   -3.0575 H   0  0  0  0  0  0  0  0  0  0  0  0
    1.5655   -1.3749   -1.8258 H   0  0  0  0  0  0  0  0  0  0  0  0
    1.2864    0.3451   -2.1019 H   0  0  0  0  0  0  0  0  0  0  0  0
   -0.7960   -1.6248   -1.0280 H   0  0  0  0  0  0  0  0  0  0  0  0
   -1.0864    0.0794   -1.3201 H   0  0  0  0  0  0  0  0  0  0  0  0
   -1.1844    3.6046   -2.2119 H   0  0  0  0  0  0  0  0  0  0  0  0
   -2.7348    3.1336   -1.5052 H   0  0  0  0  0  0  0  0  0  0  0  0
   -1.7312    1.9262   -2.3094 H   0  0  0  0  0  0  0  0  0  0  0  0
   -0.9696    3.4726    0.2121 H   0  0  0  0  0  0  0  0  0  0  0  0
    0.0228    2.2099   -0.5311 H   0  0  0  0  0  0  0  0  0  0  0  0
   -3.5261    7.2072    0.6025 H   0  0  0  0  0  0  0  0  0  0  0  0
   -5.1203    6.4042    0.6751 H   0  0  0  0  0  0  0  0  0  0  0  0
   -3.7105    5.5423   -0.0088 H   0  0  0  0  0  0  0  0  0  0  0  0
  -10.6631   -3.1659   -1.8078 H   0  0  0  0  0  0  0  0  0  0  0  0
  -10.3156   -1.4912   -2.3138 H   0  0  0  0  0  0  0  0  0  0  0  0
   -9.2051   -2.3327   -1.1965 H   0  0  0  0  0  0  0  0  0  0  0  0
   -0.7358    6.7413   -1.0284 H   0  0  0  0  0  0  0  0  0  0  0  0
    0.5313    5.5625   -0.5783 H   0  0  0  0  0  0  0  0  0  0  0  0
    0.5172    7.1879    0.1611 H   0  0  0  0  0  0  0  0  0  0  0  0
   -8.0332    0.4019   -2.2682 H   0  0  0  0  0  0  0  0  0  0  0  0
   -6.0369   -3.2580   -3.2227 H   0  0  0  0  0  0  0  0  0  0  0  0
   -6.6220    3.0204    1.2215 H   0  0  0  0  0  0  0  0  0  0  0  0
   -2.9111   -4.9361   -0.4190 H   0  0  0  0  0  0  0  0  0  0  0  0
    3.8589   -3.4763    2.1932 H   0  0  0  0  0  0  0  0  0  0  0  0
    7.1299   -0.4974    1.9648 H   0  0  0  0  0  0  0  0  0  0  0  0
    6.4740    3.5994    0.9177 H   0  0  0  0  0  0  0  0  0  0  0  0
    2.4128    5.5125    1.4823 H   0  0  0  0  0  0  0  0  0  0  0  0
   -0.9901   -2.6493    2.6305 H   0  0  0  0  0  0  0  0  0  0  0  0
    0.1926   -2.7859    0.1835 H   0  0  0  0  0  0  0  0  0  0  0  0
   -0.9083    3.2991    3.0112 H   0  0  0  0  0  0  0  0  0  0  0  0
   -2.4491    3.5525    1.7048 H   0  0  0  0  0  0  0  0  0  0  0  0
  1  2  2  0  0  0  0
  1114  1  0  0  0  0
  2  3  1  0  0  0  0
  3  4  2  0  0  0  0
  3  7  1  0  0  0  0
  4  5  1  0  0  0  0
  5  6  2  0  0  0  0
  5111  1  0  0  0  0
  6  1  1  0  0  0  0
  6 23  1  0  0  0  0
  7  8  1  0  0  0  0
  7 11  2  0  0  0  0
  8  9  1  0  0  0  0
  9 10  2  0  0  0  0
 10  4  1  0  0  0  0
 11 12  1  0  0  0  0
 11 18  1  0  0  0  0
 12 13  2  0  0  0  0
 13 14  1  0  0  0  0
 14  8  1  0  0  0  0
 14 15  2  0  0  0  0
 15 16  1  0  0  0  0
 15109  1  0  0  0  0
 16 17  2  0  0  0  0
 16 25  1  0  0  0  0
 17  9  1  0  0  0  0
 17110  1  0  0  0  0
 18 70  1  0  0  0  0
 18 19  2  0  0  0  0
 19 20  1  0  0  0  0
 19113  1  0  0  0  0
 20 21  2  0  0  0  0
 20 24  1  0  0  0  0
 21 12  1  0  0  0  0
 21108  1  0  0  0  0
 22  2  1  0  0  0  0
 23 67  2  0  0  0  0
 23 68  1  0  0  0  0
 24 55  1  0  0  0  0
 24 57  2  0  0  0  0
 25 52  2  0  0  0  0
 25 53  1  0  0  0  0
 26 27  2  0  0  0  0
 26112  1  0  0  0  0
 27 28  1  0  0  0  0
 27 47  1  0  0  0  0
 28 29  2  0  0  0  0
 28 32  1  0  0  0  0
 29 30  1  0  0  0  0
 30 31  2  0  0  0  0
 30107  1  0  0  0  0
 31 26  2  0  0  0  0
 31 48  1  0  0  0  0
 32 36  2  0  0  0  0
 33 32  1  0  0  0  0
 33 34  1  0  0  0  0
 34 35  2  0  0  0  0
 35 29  1  0  0  0  0
 36 37  1  0  0  0  0
 36 43  1  0  0  0  0
 37 38  2  0  0  0  0
 38 39  1  0  0  0  0
 39 33  1  0  0  0  0
 39 40  2  0  0  0  0
 40 41  1  0  0  0  0
 40104  1  0  0  0  0
 41 42  2  0  0  0  0
 41 50  1  0  0  0  0
 42 34  1  0  0  0  0
 42105  1  0  0  0  0
 43 73  1  0  0  0  0
 43 44  2  0  0  0  0
 44 45  1  0  0  0  0
 44115  1  0  0  0  0
 45 46  2  0  0  0  0
 45 49  1  0  0  0  0
 46 37  1  0  0  0  0
 46106  1  0  0  0  0
 48 58  2  0  0  0  0
 48 59  1  0  0  0  0
 49 64  2  0  0  0  0
 49 65  1  0  0  0  0
 50 61  2  0  0  0  0
 50 62  1  0  0  0  0
 51 70  1  0  0  0  0
 51 73  1  0  0  0  0
 51 22  1  0  0  0  0
 51 47  1  0  0  0  0
 53 54  1  0  0  0  0
 54 82  1  0  0  0  0
 54 83  1  0  0  0  0
 54 84  1  0  0  0  0
 55 56  1  0  0  0  0
 56 79  1  0  0  0  0
 56 80  1  0  0  0  0
 56 81  1  0  0  0  0
 59 60  1  0  0  0  0
 60 76  1  0  0  0  0
 60 77  1  0  0  0  0
 60 78  1  0  0  0  0
 62 63  1  0  0  0  0
 63 98  1  0  0  0  0
 63 99  1  0  0  0  0
 63100  1  0  0  0  0
 65 66  1  0  0  0  0
 66 95  1  0  0  0  0
 66 96  1  0  0  0  0
 66 97  1  0  0  0  0
 68 69  1  0  0  0  0
 69101  1  0  0  0  0
 69102  1  0  0  0  0
 69103  1  0  0  0  0
 70 72  1  0  0  0  0
 71 72  1  0  0  0  0
 71 85  1  0  0  0  0
 71 86  1  0  0  0  0
 71 87  1  0  0  0  0
 72 88  1  0  0  0  0
 72 89  1  0  0  0  0
 73 75  1  0  0  0  0
 74 75  1  0  0  0  0
 74 90  1  0  0  0  0
 74 91  1  0  0  0  0
 74 92  1  0  0  0  0
 75 93  1  0  0  0  0
 75 94  1  0  0  0  0
M  CHG  1   1  -1
M  END
