 energy: -33.576024860124 gnorm: 0.000309600113 xtb: 6.7.1 (edcfbbe)
          03032513033D

192200  0     0  0            999 V2000
    0.0130    3.3194   -3.5245 C   0  0  0  0  0  0  0  0  0  0  0  0
    2.2583   -1.8965    1.2516 C   0  0  0  0  0  0  0  0  0  0  0  0
   -4.2330    1.5915   -1.3903 C   0  0  0  0  0  0  0  0  0  0  0  0
   -3.2220    0.8329   -0.8090 C   0  0  0  0  0  0  0  0  0  0  0  0
   -1.8696    1.2746   -0.9683 C   0  0  0  0  0  0  0  0  0  0  0  0
   -1.5839    2.2574   -1.9491 C   0  0  0  0  0  0  0  0  0  0  0  0
   -2.6468    2.9837   -2.4921 C   0  0  0  0  0  0  0  0  0  0  0  0
   -3.9662    2.6933   -2.1904 C   0  0  0  0  0  0  0  0  0  0  0  0
   -0.7867    0.7347   -0.1952 C   0  0  0  0  0  0  0  0  0  0  0  0
    0.5258    0.8251   -0.7224 C   0  0  0  0  0  0  0  0  0  0  0  0
    0.7958    1.7042   -1.8013 C   0  0  0  0  0  0  0  0  0  0  0  0
   -0.2565    2.4387   -2.3706 N   0  0  0  0  0  0  0  0  0  0  0  0
   -0.9561    0.0939    1.0828 C   0  0  0  0  0  0  0  0  0  0  0  0
   -0.0002   -0.8836    1.4690 C   0  0  0  0  0  0  0  0  0  0  0  0
    1.2577   -0.8906    0.8451 N   0  0  0  0  0  0  0  0  0  0  0  0
    1.5627    0.0274   -0.1743 C   0  0  0  0  0  0  0  0  0  0  0  0
    2.8429    0.1542   -0.7075 C   0  0  0  0  0  0  0  0  0  0  0  0
    3.1381    1.0487   -1.7233 C   0  0  0  0  0  0  0  0  0  0  0  0
    2.1098    1.8137   -2.2514 C   0  0  0  0  0  0  0  0  0  0  0  0
   -2.0342    0.3809    1.9867 C   0  0  0  0  0  0  0  0  0  0  0  0
   -2.3388   -0.5721    2.9562 C   0  0  0  0  0  0  0  0  0  0  0  0
   -1.5586   -1.7073    3.1467 C   0  0  0  0  0  0  0  0  0  0  0  0
   -0.3596   -1.7996    2.4605 C   0  0  0  0  0  0  0  0  0  0  0  0
   -2.7848    1.5681    1.9890 O   0  0  0  0  0  0  0  0  0  0  0  0
   -3.4591   -0.3677   -0.1410 O   0  0  0  0  0  0  0  0  0  0  0  0
   -5.2558    1.3126   -1.2262 H   0  0  0  0  0  0  0  0  0  0  0  0
   -2.4320    3.8114   -3.1386 H   0  0  0  0  0  0  0  0  0  0  0  0
   -3.1897   -0.3822    3.5823 H   0  0  0  0  0  0  0  0  0  0  0  0
    0.2808   -2.6356    2.6646 H   0  0  0  0  0  0  0  0  0  0  0  0
    3.6380   -0.4541   -0.3241 H   0  0  0  0  0  0  0  0  0  0  0  0
    2.3371    2.5211   -3.0234 H   0  0  0  0  0  0  0  0  0  0  0  0
    2.2100   -3.1323    0.3680 C   0  0  0  0  0  0  0  0  0  0  0  0
    3.2228   -4.1865    0.7816 C   0  0  0  0  0  0  0  0  0  0  0  0
    0.3711    4.7337   -3.0942 C   0  0  0  0  0  0  0  0  0  0  0  0
    0.6313    5.6573   -4.2724 C   0  0  0  0  0  0  0  0  0  0  0  0
   -2.0858    2.7238    1.5626 C   0  0  0  0  0  0  0  0  0  0  0  0
   -4.8138   -0.6692    0.0922 C   0  0  0  0  0  0  0  0  0  0  0  0
   -5.1375    3.5214   -2.7397 C   0  0  0  0  0  0  0  0  0  0  0  0
   -6.0048    2.6352   -3.6516 C   0  0  0  0  0  0  0  0  0  0  0  0
   -5.9836    4.0413   -1.5619 C   0  0  0  0  0  0  0  0  0  0  0  0
   -4.6490    4.7333   -3.5566 C   0  0  0  0  0  0  0  0  0  0  0  0
   -1.9832   -2.8581    4.0722 C   0  0  0  0  0  0  0  0  0  0  0  0
   -1.9297   -4.1853    3.2906 C   0  0  0  0  0  0  0  0  0  0  0  0
   -3.4204   -2.6671    4.5868 C   0  0  0  0  0  0  0  0  0  0  0  0
   -1.0319   -2.9333    5.2747 C   0  0  0  0  0  0  0  0  0  0  0  0
    4.5832    1.1522   -2.2362 C   0  0  0  0  0  0  0  0  0  0  0  0
    4.7244    2.2148   -3.3438 C   0  0  0  0  0  0  0  0  0  0  0  0
    5.0151   -0.2094   -2.8112 C   0  0  0  0  0  0  0  0  0  0  0  0
    5.5105    1.5416   -1.0698 C   0  0  0  0  0  0  0  0  0  0  0  0
    6.0311   -0.1630   -3.2028 H   0  0  0  0  0  0  0  0  0  0  0  0
    4.3537   -0.5109   -3.6232 H   0  0  0  0  0  0  0  0  0  0  0  0
    4.9868   -0.9886   -2.0505 H   0  0  0  0  0  0  0  0  0  0  0  0
    5.7558    2.2765   -3.6905 H   0  0  0  0  0  0  0  0  0  0  0  0
    4.4401    3.2020   -2.9797 H   0  0  0  0  0  0  0  0  0  0  0  0
    4.1030    1.9700   -4.2050 H   0  0  0  0  0  0  0  0  0  0  0  0
    6.5406    1.6474   -1.4096 H   0  0  0  0  0  0  0  0  0  0  0  0
    5.4965    0.7891   -0.2824 H   0  0  0  0  0  0  0  0  0  0  0  0
    5.2002    2.4901   -0.6319 H   0  0  0  0  0  0  0  0  0  0  0  0
   -1.2916   -3.7640    5.9302 H   0  0  0  0  0  0  0  0  0  0  0  0
   -1.0887   -2.0189    5.8594 H   0  0  0  0  0  0  0  0  0  0  0  0
    0.0006   -3.0632    4.9537 H   0  0  0  0  0  0  0  0  0  0  0  0
   -3.7295   -3.5131    5.2000 H   0  0  0  0  0  0  0  0  0  0  0  0
   -4.1248   -2.5746    3.7605 H   0  0  0  0  0  0  0  0  0  0  0  0
   -3.4939   -1.7759    5.2046 H   0  0  0  0  0  0  0  0  0  0  0  0
   -5.4929    5.3224   -3.9154 H   0  0  0  0  0  0  0  0  0  0  0  0
   -4.0770    4.4158   -4.4281 H   0  0  0  0  0  0  0  0  0  0  0  0
   -4.0234    5.3882   -2.9504 H   0  0  0  0  0  0  0  0  0  0  0  0
   -6.8130    4.6526   -1.9169 H   0  0  0  0  0  0  0  0  0  0  0  0
   -5.3768    4.6508   -0.8924 H   0  0  0  0  0  0  0  0  0  0  0  0
   -6.4010    3.2211   -0.9792 H   0  0  0  0  0  0  0  0  0  0  0  0
   -6.8352    3.2026   -4.0715 H   0  0  0  0  0  0  0  0  0  0  0  0
   -6.4217    1.7910   -3.1039 H   0  0  0  0  0  0  0  0  0  0  0  0
   -5.4143    2.2392   -4.4774 H   0  0  0  0  0  0  0  0  0  0  0  0
   -2.2748   -5.0147    3.9076 H   0  0  0  0  0  0  0  0  0  0  0  0
   -0.9167   -4.4166    2.9642 H   0  0  0  0  0  0  0  0  0  0  0  0
   -2.5641   -4.1352    2.4059 H   0  0  0  0  0  0  0  0  0  0  0  0
    2.0997   -2.1638    2.2983 H   0  0  0  0  0  0  0  0  0  0  0  0
    3.2571   -1.4554    1.2405 H   0  0  0  0  0  0  0  0  0  0  0  0
    2.3719   -2.8330   -0.6758 H   0  0  0  0  0  0  0  0  0  0  0  0
    1.1937   -3.5470    0.3871 H   0  0  0  0  0  0  0  0  0  0  0  0
    4.2408   -3.7940    0.7367 H   0  0  0  0  0  0  0  0  0  0  0  0
    3.1820   -5.0696    0.1398 H   0  0  0  0  0  0  0  0  0  0  0  0
    3.0507   -4.5171    1.8080 H   0  0  0  0  0  0  0  0  0  0  0  0
   -2.3764    2.9739    0.5436 H   0  0  0  0  0  0  0  0  0  0  0  0
   -1.0090    2.5614    1.6122 H   0  0  0  0  0  0  0  0  0  0  0  0
   -2.3495    3.5649    2.2019 H   0  0  0  0  0  0  0  0  0  0  0  0
   -4.8677   -1.5753    0.6964 H   0  0  0  0  0  0  0  0  0  0  0  0
   -5.3262   -0.8438   -0.8544 H   0  0  0  0  0  0  0  0  0  0  0  0
   -5.2856    0.1464    0.6402 H   0  0  0  0  0  0  0  0  0  0  0  0
   -0.8554    3.3230   -4.1883 H   0  0  0  0  0  0  0  0  0  0  0  0
    0.8047    2.8841   -4.1391 H   0  0  0  0  0  0  0  0  0  0  0  0
    1.2475    4.6981   -2.4342 H   0  0  0  0  0  0  0  0  0  0  0  0
   -0.4359    5.1330   -2.4660 H   0  0  0  0  0  0  0  0  0  0  0  0
    1.4548    5.2892   -4.8876 H   0  0  0  0  0  0  0  0  0  0  0  0
    0.8870    6.6700   -3.9522 H   0  0  0  0  0  0  0  0  0  0  0  0
   -0.2460    5.7287   -4.9185 H   0  0  0  0  0  0  0  0  0  0  0  0
   -0.5831    3.4446    4.5963 C   0  0  0  0  0  0  0  0  0  0  0  0
    1.8887   -2.4908    8.1684 C   0  0  0  0  0  0  0  0  0  0  0  0
   -4.8444    0.8708    5.9157 C   0  0  0  0  0  0  0  0  0  0  0  0
   -3.7962    0.1990    6.5384 C   0  0  0  0  0  0  0  0  0  0  0  0
   -2.4725    0.7243    6.4144 C   0  0  0  0  0  0  0  0  0  0  0  0
   -2.2468    1.7935    5.5132 C   0  0  0  0  0  0  0  0  0  0  0  0
   -3.3422    2.4105    4.9101 C   0  0  0  0  0  0  0  0  0  0  0  0
   -4.6408    1.9847    5.1145 C   0  0  0  0  0  0  0  0  0  0  0  0
   -1.3378    0.1285    7.0741 C   0  0  0  0  0  0  0  0  0  0  0  0
   -0.0754    0.2343    6.4328 C   0  0  0  0  0  0  0  0  0  0  0  0
    0.1151    1.2136    5.4305 C   0  0  0  0  0  0  0  0  0  0  0  0
   -0.9233    2.1209    5.1609 N   0  0  0  0  0  0  0  0  0  0  0  0
   -1.4171   -0.6559    8.2764 C   0  0  0  0  0  0  0  0  0  0  0  0
   -0.4221   -1.6434    8.5066 C   0  0  0  0  0  0  0  0  0  0  0  0
    0.7828   -1.5914    7.7853 N   0  0  0  0  0  0  0  0  0  0  0  0
    0.9863   -0.6378    6.7769 C   0  0  0  0  0  0  0  0  0  0  0  0
    2.1795   -0.5410    6.0619 C   0  0  0  0  0  0  0  0  0  0  0  0
    2.3665    0.3880    5.0488 C   0  0  0  0  0  0  0  0  0  0  0  0
    1.3358    1.2690    4.7668 C   0  0  0  0  0  0  0  0  0  0  0  0
   -2.4361   -0.4804    9.2691 C   0  0  0  0  0  0  0  0  0  0  0  0
   -2.6273   -1.4935   10.2050 C   0  0  0  0  0  0  0  0  0  0  0  0
   -1.7815   -2.5903   10.2924 C   0  0  0  0  0  0  0  0  0  0  0  0
   -0.6660   -2.6209    9.4746 C   0  0  0  0  0  0  0  0  0  0  0  0
   -3.2325    0.6715    9.4032 O   0  0  0  0  0  0  0  0  0  0  0  0
   -3.9771   -1.0321    7.1731 O   0  0  0  0  0  0  0  0  0  0  0  0
   -5.8350    0.4717    6.0055 H   0  0  0  0  0  0  0  0  0  0  0  0
   -3.1704    3.1851    4.1920 H   0  0  0  0  0  0  0  0  0  0  0  0
   -3.4430   -1.3767   10.8927 H   0  0  0  0  0  0  0  0  0  0  0  0
    0.0141   -3.4453    9.5705 H   0  0  0  0  0  0  0  0  0  0  0  0
    2.9803   -1.2149    6.2917 H   0  0  0  0  0  0  0  0  0  0  0  0
    1.4696    2.0053    3.9988 H   0  0  0  0  0  0  0  0  0  0  0  0
    1.9082   -3.7659    7.3386 C   0  0  0  0  0  0  0  0  0  0  0  0
    3.0131   -4.7218    7.7552 C   0  0  0  0  0  0  0  0  0  0  0  0
    0.3153    4.2490    5.5263 C   0  0  0  0  0  0  0  0  0  0  0  0
    0.6938    5.6020    4.9480 C   0  0  0  0  0  0  0  0  0  0  0  0
   -2.5499    1.8927    9.1851 C   0  0  0  0  0  0  0  0  0  0  0  0
   -5.3025   -1.3224    7.5521 C   0  0  0  0  0  0  0  0  0  0  0  0
   -5.7921    2.6166    4.3176 C   0  0  0  0  0  0  0  0  0  0  0  0
   -5.8364    1.9616    2.9265 C   0  0  0  0  0  0  0  0  0  0  0  0
   -7.1441    2.4010    5.0261 C   0  0  0  0  0  0  0  0  0  0  0  0
   -5.5772    4.1359    4.1617 C   0  0  0  0  0  0  0  0  0  0  0  0
   -2.0178   -3.7296   11.2948 C   0  0  0  0  0  0  0  0  0  0  0  0
   -2.0931   -5.0667   10.5339 C   0  0  0  0  0  0  0  0  0  0  0  0
   -3.3355   -3.5412   12.0710 C   0  0  0  0  0  0  0  0  0  0  0  0
   -0.8561   -3.7701   12.3035 C   0  0  0  0  0  0  0  0  0  0  0  0
    3.7098    0.4990    4.3109 C   0  0  0  0  0  0  0  0  0  0  0  0
    3.5040    1.0542    2.8848 C   0  0  0  0  0  0  0  0  0  0  0  0
    4.3901   -0.8811    4.1985 C   0  0  0  0  0  0  0  0  0  0  0  0
    4.6266    1.4519    5.0950 C   0  0  0  0  0  0  0  0  0  0  0  0
    5.2701   -0.8298    3.5575 H   0  0  0  0  0  0  0  0  0  0  0  0
    3.7093   -1.6184    3.7765 H   0  0  0  0  0  0  0  0  0  0  0  0
    4.7208   -1.2440    5.1708 H   0  0  0  0  0  0  0  0  0  0  0  0
    4.4189    0.9749    2.2981 H   0  0  0  0  0  0  0  0  0  0  0  0
    3.2232    2.1065    2.9019 H   0  0  0  0  0  0  0  0  0  0  0  0
    2.7198    0.5061    2.3652 H   0  0  0  0  0  0  0  0  0  0  0  0
    5.5919    1.5605    4.6009 H   0  0  0  0  0  0  0  0  0  0  0  0
    4.8018    1.0780    6.1035 H   0  0  0  0  0  0  0  0  0  0  0  0
    4.1756    2.4404    5.1794 H   0  0  0  0  0  0  0  0  0  0  0  0
   -1.0058   -4.5603   13.0390 H   0  0  0  0  0  0  0  0  0  0  0  0
   -0.7765   -2.8230   12.8366 H   0  0  0  0  0  0  0  0  0  0  0  0
    0.0948   -3.9542   11.8049 H   0  0  0  0  0  0  0  0  0  0  0  0
   -3.5061   -4.3752   12.7516 H   0  0  0  0  0  0  0  0  0  0  0  0
   -4.1858   -3.4895   11.3913 H   0  0  0  0  0  0  0  0  0  0  0  0
   -3.3137   -2.6303   12.6686 H   0  0  0  0  0  0  0  0  0  0  0  0
   -6.4409    4.6025    3.6883 H   0  0  0  0  0  0  0  0  0  0  0  0
   -4.7114    4.3590    3.5403 H   0  0  0  0  0  0  0  0  0  0  0  0
   -5.4312    4.6071    5.1334 H   0  0  0  0  0  0  0  0  0  0  0  0
   -7.9407    2.9378    4.5110 H   0  0  0  0  0  0  0  0  0  0  0  0
   -7.1053    2.7633    6.0532 H   0  0  0  0  0  0  0  0  0  0  0  0
   -7.4248    1.3487    5.0427 H   0  0  0  0  0  0  0  0  0  0  0  0
   -6.6305    2.3885    2.3145 H   0  0  0  0  0  0  0  0  0  0  0  0
   -6.0108    0.8894    3.0119 H   0  0  0  0  0  0  0  0  0  0  0  0
   -4.8914    2.1015    2.4028 H   0  0  0  0  0  0  0  0  0  0  0  0
   -2.2914   -5.8931   11.2162 H   0  0  0  0  0  0  0  0  0  0  0  0
   -1.1605   -5.2820   10.0140 H   0  0  0  0  0  0  0  0  0  0  0  0
   -2.8914   -5.0419    9.7924 H   0  0  0  0  0  0  0  0  0  0  0  0
    1.8126   -2.7224    9.2340 H   0  0  0  0  0  0  0  0  0  0  0  0
    2.8380   -1.9554    8.0863 H   0  0  0  0  0  0  0  0  0  0  0  0
    2.0107   -3.5041    6.2776 H   0  0  0  0  0  0  0  0  0  0  0  0
    0.9299   -4.2579    7.4141 H   0  0  0  0  0  0  0  0  0  0  0  0
    3.9958   -4.2571    7.6535 H   0  0  0  0  0  0  0  0  0  0  0  0
    3.0162   -5.6333    7.1528 H   0  0  0  0  0  0  0  0  0  0  0  0
    2.9040   -5.0191    8.8001 H   0  0  0  0  0  0  0  0  0  0  0  0
   -2.8368    2.6002    9.9634 H   0  0  0  0  0  0  0  0  0  0  0  0
   -2.8327    2.3023    8.2158 H   0  0  0  0  0  0  0  0  0  0  0  0
   -1.4705    1.7409    9.2227 H   0  0  0  0  0  0  0  0  0  0  0  0
   -5.2925   -2.1974    8.2026 H   0  0  0  0  0  0  0  0  0  0  0  0
   -5.9073   -1.5442    6.6724 H   0  0  0  0  0  0  0  0  0  0  0  0
   -5.7184   -0.4783    8.1038 H   0  0  0  0  0  0  0  0  0  0  0  0
   -1.4913    4.0166    4.4031 H   0  0  0  0  0  0  0  0  0  0  0  0
   -0.1096    3.3029    3.6219 H   0  0  0  0  0  0  0  0  0  0  0  0
    1.2179    3.6691    5.7571 H   0  0  0  0  0  0  0  0  0  0  0  0
   -0.1918    4.3720    6.4924 H   0  0  0  0  0  0  0  0  0  0  0  0
    1.2316    5.4904    4.0043 H   0  0  0  0  0  0  0  0  0  0  0  0
    1.3325    6.1741    5.6251 H   0  0  0  0  0  0  0  0  0  0  0  0
   -0.1927    6.2057    4.7434 H   0  0  0  0  0  0  0  0  0  0  0  0
  1 34  1  0  0  0  0
  1 90  1  0  0  0  0
  1 91  1  0  0  0  0
  2 32  1  0  0  0  0
  2 77  1  0  0  0  0
  2 78  1  0  0  0  0
  3  4  2  0  0  0  0
  3 26  1  0  0  0  0
  4  5  1  0  0  0  0
  4 25  1  0  0  0  0
  5  6  2  0  0  0  0
  5  9  1  0  0  0  0
  6  7  1  0  0  0  0
  7  8  2  0  0  0  0
  7 27  1  0  0  0  0
  8 38  1  0  0  0  0
  8  3  1  0  0  0  0
  9 10  1  0  0  0  0
 10 11  2  0  0  0  0
 11 12  1  0  0  0  0
 12  1  1  0  0  0  0
 12  6  1  0  0  0  0
 13 14  2  0  0  0  0
 13 20  1  0  0  0  0
 13  9  1  0  0  0  0
 14 15  1  0  0  0  0
 15  2  1  0  0  0  0
 15 16  1  0  0  0  0
 16 10  1  0  0  0  0
 16 17  2  0  0  0  0
 17 18  1  0  0  0  0
 17 30  1  0  0  0  0
 18 46  1  0  0  0  0
 18 19  2  0  0  0  0
 19 11  1  0  0  0  0
 19 31  1  0  0  0  0
 20 21  2  0  0  0  0
 21 22  1  0  0  0  0
 21 28  1  0  0  0  0
 22 42  1  0  0  0  0
 22 23  2  0  0  0  0
 23 14  1  0  0  0  0
 23 29  1  0  0  0  0
 24 36  1  0  0  0  0
 24 20  1  0  0  0  0
 25 37  1  0  0  0  0
 32 33  1  0  0  0  0
 32 79  1  0  0  0  0
 32 80  1  0  0  0  0
 33 81  1  0  0  0  0
 33 82  1  0  0  0  0
 33 83  1  0  0  0  0
 34 35  1  0  0  0  0
 34 92  1  0  0  0  0
 34 93  1  0  0  0  0
 35 94  1  0  0  0  0
 35 95  1  0  0  0  0
 35 96  1  0  0  0  0
 36 84  1  0  0  0  0
 36 85  1  0  0  0  0
 36 86  1  0  0  0  0
 37 87  1  0  0  0  0
 37 88  1  0  0  0  0
 37 89  1  0  0  0  0
 38 39  1  0  0  0  0
 38 40  1  0  0  0  0
 38 41  1  0  0  0  0
 39 71  1  0  0  0  0
 39 72  1  0  0  0  0
 39 73  1  0  0  0  0
 40 68  1  0  0  0  0
 40 69  1  0  0  0  0
 40 70  1  0  0  0  0
 41 65  1  0  0  0  0
 41 66  1  0  0  0  0
 41 67  1  0  0  0  0
 42 43  1  0  0  0  0
 42 44  1  0  0  0  0
 42 45  1  0  0  0  0
 43 74  1  0  0  0  0
 43 75  1  0  0  0  0
 43 76  1  0  0  0  0
 44 62  1  0  0  0  0
 44 63  1  0  0  0  0
 44 64  1  0  0  0  0
 45 59  1  0  0  0  0
 45 60  1  0  0  0  0
 45 61  1  0  0  0  0
 46 47  1  0  0  0  0
 46 48  1  0  0  0  0
 46 49  1  0  0  0  0
 47 53  1  0  0  0  0
 47 54  1  0  0  0  0
 47 55  1  0  0  0  0
 48 50  1  0  0  0  0
 48 51  1  0  0  0  0
 48 52  1  0  0  0  0
 49 56  1  0  0  0  0
 49 57  1  0  0  0  0
 49 58  1  0  0  0  0
 97130  1  0  0  0  0
 97186  1  0  0  0  0
 97187  1  0  0  0  0
 98128  1  0  0  0  0
 98173  1  0  0  0  0
 98174  1  0  0  0  0
 99100  2  0  0  0  0
 99122  1  0  0  0  0
100101  1  0  0  0  0
100121  1  0  0  0  0
101102  2  0  0  0  0
101105  1  0  0  0  0
102103  1  0  0  0  0
103104  2  0  0  0  0
103123  1  0  0  0  0
104134  1  0  0  0  0
104 99  1  0  0  0  0
105106  1  0  0  0  0
106107  2  0  0  0  0
107108  1  0  0  0  0
108 97  1  0  0  0  0
108102  1  0  0  0  0
109110  2  0  0  0  0
109116  1  0  0  0  0
109105  1  0  0  0  0
110111  1  0  0  0  0
111 98  1  0  0  0  0
111112  1  0  0  0  0
112106  1  0  0  0  0
112113  2  0  0  0  0
113114  1  0  0  0  0
113126  1  0  0  0  0
114142  1  0  0  0  0
114115  2  0  0  0  0
115107  1  0  0  0  0
115127  1  0  0  0  0
116117  2  0  0  0  0
117118  1  0  0  0  0
117124  1  0  0  0  0
118138  1  0  0  0  0
118119  2  0  0  0  0
119110  1  0  0  0  0
119125  1  0  0  0  0
120132  1  0  0  0  0
120116  1  0  0  0  0
121133  1  0  0  0  0
128129  1  0  0  0  0
128175  1  0  0  0  0
128176  1  0  0  0  0
129177  1  0  0  0  0
129178  1  0  0  0  0
129179  1  0  0  0  0
130131  1  0  0  0  0
130188  1  0  0  0  0
130189  1  0  0  0  0
131190  1  0  0  0  0
131191  1  0  0  0  0
131192  1  0  0  0  0
132180  1  0  0  0  0
132181  1  0  0  0  0
132182  1  0  0  0  0
133183  1  0  0  0  0
133184  1  0  0  0  0
133185  1  0  0  0  0
134135  1  0  0  0  0
134136  1  0  0  0  0
134137  1  0  0  0  0
135167  1  0  0  0  0
135168  1  0  0  0  0
135169  1  0  0  0  0
136164  1  0  0  0  0
136165  1  0  0  0  0
136166  1  0  0  0  0
137161  1  0  0  0  0
137162  1  0  0  0  0
137163  1  0  0  0  0
138139  1  0  0  0  0
138140  1  0  0  0  0
138141  1  0  0  0  0
139170  1  0  0  0  0
139171  1  0  0  0  0
139172  1  0  0  0  0
140158  1  0  0  0  0
140159  1  0  0  0  0
140160  1  0  0  0  0
141155  1  0  0  0  0
141156  1  0  0  0  0
141157  1  0  0  0  0
142143  1  0  0  0  0
142144  1  0  0  0  0
142145  1  0  0  0  0
143149  1  0  0  0  0
143150  1  0  0  0  0
143151  1  0  0  0  0
144146  1  0  0  0  0
144147  1  0  0  0  0
144148  1  0  0  0  0
145152  1  0  0  0  0
145153  1  0  0  0  0
145154  1  0  0  0  0
M  END
