 energy: -249.271805421323 gnorm: 0.000263947520 xtb: 6.7.1 (edcfbbe)
          03032513063D

192200  0     0  0            999 V2000
    0.5012    3.1817   -3.6130 C   0  0  0  0  0  0  0  0  0  0  0  0
    1.9834   -2.2316    0.7186 C   0  0  0  0  0  0  0  0  0  0  0  0
   -3.8963    1.2807   -2.0783 C   0  0  0  0  0  0  0  0  0  0  0  0
   -2.9381    0.6531   -1.3069 C   0  0  0  0  0  0  0  0  0  0  0  0
   -1.6029    1.1297   -1.2990 C   0  0  0  0  0  0  0  0  0  0  0  0
   -1.2284    2.0779   -2.2786 C   0  0  0  0  0  0  0  0  0  0  0  0
   -2.2272    2.7166   -3.0113 C   0  0  0  0  0  0  0  0  0  0  0  0
   -3.5645    2.3583   -2.8966 C   0  0  0  0  0  0  0  0  0  0  0  0
   -0.6243    0.6647   -0.3743 C   0  0  0  0  0  0  0  0  0  0  0  0
    0.7379    0.8295   -0.7313 C   0  0  0  0  0  0  0  0  0  0  0  0
    1.1153    1.7425   -1.7356 C   0  0  0  0  0  0  0  0  0  0  0  0
    0.1196    2.3753   -2.4737 N   0  0  0  0  0  0  0  0  0  0  0  0
   -0.8897    0.0550    0.8947 C   0  0  0  0  0  0  0  0  0  0  0  0
    0.0547   -0.8753    1.3881 C   0  0  0  0  0  0  0  0  0  0  0  0
    1.3128   -0.9484    0.7942 N   0  0  0  0  0  0  0  0  0  0  0  0
    1.7212    0.0681   -0.0718 C   0  0  0  0  0  0  0  0  0  0  0  0
    3.0625    0.3277   -0.3110 C   0  0  0  0  0  0  0  0  0  0  0  0
    3.4509    1.3060   -1.2201 C   0  0  0  0  0  0  0  0  0  0  0  0
    2.4707    1.9884   -1.9339 C   0  0  0  0  0  0  0  0  0  0  0  0
   -2.0367    0.2855    1.6782 C   0  0  0  0  0  0  0  0  0  0  0  0
   -2.3813   -0.5969    2.6910 C   0  0  0  0  0  0  0  0  0  0  0  0
   -1.5584   -1.6631    3.0230 C   0  0  0  0  0  0  0  0  0  0  0  0
   -0.2992   -1.7204    2.4294 C   0  0  0  0  0  0  0  0  0  0  0  0
   -2.8937    1.3500    1.4910 O   0  0  0  0  0  0  0  0  0  0  0  0
   -3.1714   -0.4736   -0.5731 O   0  0  0  0  0  0  0  0  0  0  0  0
   -4.9141    0.9307   -2.0445 H   0  0  0  0  0  0  0  0  0  0  0  0
   -1.9724    3.5248   -3.6698 H   0  0  0  0  0  0  0  0  0  0  0  0
   -3.3110   -0.4160    3.2018 H   0  0  0  0  0  0  0  0  0  0  0  0
    0.4032   -2.4607    2.7727 H   0  0  0  0  0  0  0  0  0  0  0  0
    3.8110   -0.2230    0.2350 H   0  0  0  0  0  0  0  0  0  0  0  0
    2.7818    2.7344   -2.6400 H   0  0  0  0  0  0  0  0  0  0  0  0
    1.1756   -3.2352   -0.1128 C   0  0  0  0  0  0  0  0  0  0  0  0
    1.8724   -4.5873   -0.1771 C   0  0  0  0  0  0  0  0  0  0  0  0
    0.6514    4.6637   -3.2556 C   0  0  0  0  0  0  0  0  0  0  0  0
    1.0338    5.4928   -4.4742 C   0  0  0  0  0  0  0  0  0  0  0  0
   -2.3449    2.6097    1.1783 C   0  0  0  0  0  0  0  0  0  0  0  0
   -4.4966   -0.8544   -0.3182 C   0  0  0  0  0  0  0  0  0  0  0  0
   -4.6709    3.0651   -3.6644 C   0  0  0  0  0  0  0  0  0  0  0  0
   -5.3407    2.0646   -4.6179 C   0  0  0  0  0  0  0  0  0  0  0  0
   -5.7070    3.6031   -2.6669 C   0  0  0  0  0  0  0  0  0  0  0  0
   -4.1630    4.2447   -4.4988 C   0  0  0  0  0  0  0  0  0  0  0  0
   -1.9820   -2.7753    3.9688 C   0  0  0  0  0  0  0  0  0  0  0  0
   -1.8331   -4.1145    3.2263 C   0  0  0  0  0  0  0  0  0  0  0  0
   -3.4427   -2.6394    4.4028 C   0  0  0  0  0  0  0  0  0  0  0  0
   -1.1042   -2.7850    5.2249 C   0  0  0  0  0  0  0  0  0  0  0  0
    4.9353    1.5734   -1.4264 C   0  0  0  0  0  0  0  0  0  0  0  0
    5.2095    2.7107   -2.4149 C   0  0  0  0  0  0  0  0  0  0  0  0
    5.5976    0.2998   -1.9721 C   0  0  0  0  0  0  0  0  0  0  0  0
    5.5767    1.9537   -0.0848 C   0  0  0  0  0  0  0  0  0  0  0  0
    6.6576    0.4719   -2.1481 H   0  0  0  0  0  0  0  0  0  0  0  0
    5.1337    0.0081   -2.9122 H   0  0  0  0  0  0  0  0  0  0  0  0
    5.4982   -0.5263   -1.2734 H   0  0  0  0  0  0  0  0  0  0  0  0
    6.2834    2.8672   -2.4967 H   0  0  0  0  0  0  0  0  0  0  0  0
    4.7604    3.6413   -2.0749 H   0  0  0  0  0  0  0  0  0  0  0  0
    4.8327    2.4706   -3.4065 H   0  0  0  0  0  0  0  0  0  0  0  0
    6.6324    2.1794   -0.2229 H   0  0  0  0  0  0  0  0  0  0  0  0
    5.4950    1.1441    0.6344 H   0  0  0  0  0  0  0  0  0  0  0  0
    5.0857    2.8319    0.3293 H   0  0  0  0  0  0  0  0  0  0  0  0
   -1.3130   -3.6701    5.8229 H   0  0  0  0  0  0  0  0  0  0  0  0
   -1.3136   -1.9090    5.8301 H   0  0  0  0  0  0  0  0  0  0  0  0
   -0.0474   -2.7799    4.9707 H   0  0  0  0  0  0  0  0  0  0  0  0
   -3.7090   -3.4739    5.0492 H   0  0  0  0  0  0  0  0  0  0  0  0
   -4.1059   -2.6476    3.5402 H   0  0  0  0  0  0  0  0  0  0  0  0
   -3.5964   -1.7204    4.9603 H   0  0  0  0  0  0  0  0  0  0  0  0
   -5.0040    4.7243   -4.9961 H   0  0  0  0  0  0  0  0  0  0  0  0
   -3.4679    3.9123   -5.2666 H   0  0  0  0  0  0  0  0  0  0  0  0
   -3.6762    4.9880   -3.8713 H   0  0  0  0  0  0  0  0  0  0  0  0
   -6.5099    4.1129   -3.1960 H   0  0  0  0  0  0  0  0  0  0  0  0
   -5.2388    4.3097   -1.9847 H   0  0  0  0  0  0  0  0  0  0  0  0
   -6.1431    2.8015   -2.0778 H   0  0  0  0  0  0  0  0  0  0  0  0
   -6.1181    2.5589   -5.1972 H   0  0  0  0  0  0  0  0  0  0  0  0
   -5.7945    1.2416   -4.0732 H   0  0  0  0  0  0  0  0  0  0  0  0
   -4.6054    1.6523   -5.3060 H   0  0  0  0  0  0  0  0  0  0  0  0
   -2.2188   -4.9273    3.8386 H   0  0  0  0  0  0  0  0  0  0  0  0
   -0.7930   -4.3288    2.9970 H   0  0  0  0  0  0  0  0  0  0  0  0
   -2.3909   -4.0910    2.2921 H   0  0  0  0  0  0  0  0  0  0  0  0
    2.1547   -2.6352    1.7206 H   0  0  0  0  0  0  0  0  0  0  0  0
    2.9562   -2.0895    0.2490 H   0  0  0  0  0  0  0  0  0  0  0  0
    1.0483   -2.8326   -1.1202 H   0  0  0  0  0  0  0  0  0  0  0  0
    0.1833   -3.3479    0.3276 H   0  0  0  0  0  0  0  0  0  0  0  0
    2.8572   -4.4913   -0.6302 H   0  0  0  0  0  0  0  0  0  0  0  0
    1.2893   -5.2878   -0.7694 H   0  0  0  0  0  0  0  0  0  0  0  0
    1.9943   -5.0022    0.8214 H   0  0  0  0  0  0  0  0  0  0  0  0
   -2.5980    2.9012    0.1551 H   0  0  0  0  0  0  0  0  0  0  0  0
   -1.2592    2.6211    1.2896 H   0  0  0  0  0  0  0  0  0  0  0  0
   -2.7821    3.3401    1.8660 H   0  0  0  0  0  0  0  0  0  0  0  0
   -4.4300   -1.6810    0.3880 H   0  0  0  0  0  0  0  0  0  0  0  0
   -5.0048   -1.1970   -1.2274 H   0  0  0  0  0  0  0  0  0  0  0  0
   -5.0650   -0.0385    0.1383 H   0  0  0  0  0  0  0  0  0  0  0  0
   -0.2445    3.0611   -4.4018 H   0  0  0  0  0  0  0  0  0  0  0  0
    1.4403    2.8008   -4.0211 H   0  0  0  0  0  0  0  0  0  0  0  0
    1.4132    4.7680   -2.4804 H   0  0  0  0  0  0  0  0  0  0  0  0
   -0.2901    5.0278   -2.8396 H   0  0  0  0  0  0  0  0  0  0  0  0
    1.9797    5.1506   -4.8891 H   0  0  0  0  0  0  0  0  0  0  0  0
    1.1369    6.5412   -4.2057 H   0  0  0  0  0  0  0  0  0  0  0  0
    0.2728    5.4105   -5.2475 H   0  0  0  0  0  0  0  0  0  0  0  0
   -1.1185    3.3128    4.5996 C   0  0  0  0  0  0  0  0  0  0  0  0
    1.9785   -1.9906    8.4242 C   0  0  0  0  0  0  0  0  0  0  0  0
   -5.0459    0.4649    6.1457 C   0  0  0  0  0  0  0  0  0  0  0  0
   -3.9207    0.0109    6.8155 C   0  0  0  0  0  0  0  0  0  0  0  0
   -2.6546    0.5937    6.5664 C   0  0  0  0  0  0  0  0  0  0  0  0
   -2.5540    1.5095    5.4968 C   0  0  0  0  0  0  0  0  0  0  0  0
   -3.6915    1.8987    4.8034 C   0  0  0  0  0  0  0  0  0  0  0  0
   -4.9522    1.4226    5.1418 C   0  0  0  0  0  0  0  0  0  0  0  0
   -1.4604    0.2255    7.2657 C   0  0  0  0  0  0  0  0  0  0  0  0
   -0.2394    0.3542    6.5478 C   0  0  0  0  0  0  0  0  0  0  0  0
   -0.1758    1.2246    5.4463 C   0  0  0  0  0  0  0  0  0  0  0  0
   -1.2981    1.9855    5.1407 N   0  0  0  0  0  0  0  0  0  0  0  0
   -1.4034   -0.3911    8.5504 C   0  0  0  0  0  0  0  0  0  0  0  0
   -0.3236   -1.2691    8.8264 C   0  0  0  0  0  0  0  0  0  0  0  0
    0.8157   -1.2280    8.0275 N   0  0  0  0  0  0  0  0  0  0  0  0
    0.9023   -0.3825    6.9270 C   0  0  0  0  0  0  0  0  0  0  0  0
    2.0563   -0.2467    6.1648 C   0  0  0  0  0  0  0  0  0  0  0  0
    2.1256    0.6152    5.0716 C   0  0  0  0  0  0  0  0  0  0  0  0
    1.0006    1.3431    4.7182 C   0  0  0  0  0  0  0  0  0  0  0  0
   -2.3701   -0.2145    9.5601 C   0  0  0  0  0  0  0  0  0  0  0  0
   -2.4387   -1.0898   10.6335 C   0  0  0  0  0  0  0  0  0  0  0  0
   -1.5306   -2.1277   10.7627 C   0  0  0  0  0  0  0  0  0  0  0  0
   -0.4492   -2.1633    9.8816 C   0  0  0  0  0  0  0  0  0  0  0  0
   -3.2824    0.8175    9.5746 O   0  0  0  0  0  0  0  0  0  0  0  0
   -3.9362   -1.0510    7.6734 O   0  0  0  0  0  0  0  0  0  0  0  0
   -6.0014    0.0342    6.3860 H   0  0  0  0  0  0  0  0  0  0  0  0
   -3.5918    2.5543    3.9568 H   0  0  0  0  0  0  0  0  0  0  0  0
   -3.2320   -0.9274   11.3427 H   0  0  0  0  0  0  0  0  0  0  0  0
    0.2856   -2.9360   10.0241 H   0  0  0  0  0  0  0  0  0  0  0  0
    2.9355   -0.8187    6.4027 H   0  0  0  0  0  0  0  0  0  0  0  0
    1.0225    1.9939    3.8637 H   0  0  0  0  0  0  0  0  0  0  0  0
    2.0484   -3.3470    7.7158 C   0  0  0  0  0  0  0  0  0  0  0  0
    3.2588   -4.1526    8.1682 C   0  0  0  0  0  0  0  0  0  0  0  0
   -0.2786    4.1905    5.5367 C   0  0  0  0  0  0  0  0  0  0  0  0
   -0.1171    5.5967    4.9751 C   0  0  0  0  0  0  0  0  0  0  0  0
   -2.8352    2.1012    9.2005 C   0  0  0  0  0  0  0  0  0  0  0  0
   -5.1657   -1.5689    8.0994 C   0  0  0  0  0  0  0  0  0  0  0  0
   -6.1596    1.8917    4.3453 C   0  0  0  0  0  0  0  0  0  0  0  0
   -6.0778    1.2823    2.9377 C   0  0  0  0  0  0  0  0  0  0  0  0
   -7.4859    1.4700    4.9856 C   0  0  0  0  0  0  0  0  0  0  0  0
   -6.1569    3.4243    4.2458 C   0  0  0  0  0  0  0  0  0  0  0  0
   -1.6397   -3.1913   11.8437 C   0  0  0  0  0  0  0  0  0  0  0  0
   -1.7168   -4.5717   11.1750 C   0  0  0  0  0  0  0  0  0  0  0  0
   -2.8896   -3.0154   12.7100 C   0  0  0  0  0  0  0  0  0  0  0  0
   -0.4103   -3.1279   12.7612 C   0  0  0  0  0  0  0  0  0  0  0  0
    3.4403    0.7369    4.3152 C   0  0  0  0  0  0  0  0  0  0  0  0
    3.3813    1.7760    3.1922 C   0  0  0  0  0  0  0  0  0  0  0  0
    3.7866   -0.6183    3.6865 C   0  0  0  0  0  0  0  0  0  0  0  0
    4.5503    1.1611    5.2889 C   0  0  0  0  0  0  0  0  0  0  0  0
    4.7289   -0.5543    3.1453 H   0  0  0  0  0  0  0  0  0  0  0  0
    3.0019   -0.9031    2.9916 H   0  0  0  0  0  0  0  0  0  0  0  0
    3.8805   -1.3951    4.4410 H   0  0  0  0  0  0  0  0  0  0  0  0
    4.3558    1.8456    2.7140 H   0  0  0  0  0  0  0  0  0  0  0  0
    3.1312    2.7598    3.5830 H   0  0  0  0  0  0  0  0  0  0  0  0
    2.6563    1.4950    2.4318 H   0  0  0  0  0  0  0  0  0  0  0  0
    5.4878    1.2970    4.7529 H   0  0  0  0  0  0  0  0  0  0  0  0
    4.7103    0.4166    6.0637 H   0  0  0  0  0  0  0  0  0  0  0  0
    4.2888    2.1014    5.7698 H   0  0  0  0  0  0  0  0  0  0  0  0
   -0.4974   -3.8642   13.5580 H   0  0  0  0  0  0  0  0  0  0  0  0
   -0.3284   -2.1403   13.2100 H   0  0  0  0  0  0  0  0  0  0  0  0
    0.5056   -3.3296   12.2124 H   0  0  0  0  0  0  0  0  0  0  0  0
   -2.9448   -3.8214   13.4396 H   0  0  0  0  0  0  0  0  0  0  0  0
   -3.7903   -3.0464   12.1019 H   0  0  0  0  0  0  0  0  0  0  0  0
   -2.8595   -2.0732   13.2517 H   0  0  0  0  0  0  0  0  0  0  0  0
   -7.0679    3.7695    3.7609 H   0  0  0  0  0  0  0  0  0  0  0  0
   -5.3143    3.7854    3.6634 H   0  0  0  0  0  0  0  0  0  0  0  0
   -6.1059    3.8670    5.2386 H   0  0  0  0  0  0  0  0  0  0  0  0
   -8.3142    1.8965    4.4228 H   0  0  0  0  0  0  0  0  0  0  0  0
   -7.5519    1.8273    6.0110 H   0  0  0  0  0  0  0  0  0  0  0  0
   -7.6039    0.3892    4.9769 H   0  0  0  0  0  0  0  0  0  0  0  0
   -6.8990    1.6456    2.3220 H   0  0  0  0  0  0  0  0  0  0  0  0
   -6.1445    0.1973    2.9966 H   0  0  0  0  0  0  0  0  0  0  0  0
   -5.1380    1.5351    2.4541 H   0  0  0  0  0  0  0  0  0  0  0  0
   -1.8283   -5.3499   11.9276 H   0  0  0  0  0  0  0  0  0  0  0  0
   -0.8216   -4.7836   10.5971 H   0  0  0  0  0  0  0  0  0  0  0  0
   -2.5716   -4.6135   10.5034 H   0  0  0  0  0  0  0  0  0  0  0  0
    1.9599   -2.1318    9.5064 H   0  0  0  0  0  0  0  0  0  0  0  0
    2.8796   -1.4110    8.2105 H   0  0  0  0  0  0  0  0  0  0  0  0
    2.0927   -3.1810    6.6378 H   0  0  0  0  0  0  0  0  0  0  0  0
    1.1316   -3.9022    7.9226 H   0  0  0  0  0  0  0  0  0  0  0  0
    4.1802   -3.6150    7.9532 H   0  0  0  0  0  0  0  0  0  0  0  0
    3.2936   -5.1103    7.6549 H   0  0  0  0  0  0  0  0  0  0  0  0
    3.2169   -4.3397    9.2393 H   0  0  0  0  0  0  0  0  0  0  0  0
   -3.2699    2.8065    9.9135 H   0  0  0  0  0  0  0  0  0  0  0  0
   -3.1734    2.3610    8.1926 H   0  0  0  0  0  0  0  0  0  0  0  0
   -1.7458    2.1771    9.2398 H   0  0  0  0  0  0  0  0  0  0  0  0
   -4.9172   -2.3308    8.8373 H   0  0  0  0  0  0  0  0  0  0  0  0
   -5.7207   -2.0323    7.2750 H   0  0  0  0  0  0  0  0  0  0  0  0
   -5.7838   -0.7993    8.5726 H   0  0  0  0  0  0  0  0  0  0  0  0
   -2.0976    3.7775    4.4891 H   0  0  0  0  0  0  0  0  0  0  0  0
   -0.6499    3.2737    3.6102 H   0  0  0  0  0  0  0  0  0  0  0  0
    0.7027    3.7357    5.6804 H   0  0  0  0  0  0  0  0  0  0  0  0
   -0.7712    4.2332    6.5108 H   0  0  0  0  0  0  0  0  0  0  0  0
    0.3785    5.5664    4.0069 H   0  0  0  0  0  0  0  0  0  0  0  0
    0.4802    6.2084    5.6465 H   0  0  0  0  0  0  0  0  0  0  0  0
   -1.0865    6.0741    4.8482 H   0  0  0  0  0  0  0  0  0  0  0  0
  1 34  1  0  0  0  0
  1 90  1  0  0  0  0
  1 91  1  0  0  0  0
  2 32  1  0  0  0  0
  2 77  1  0  0  0  0
  2 78  1  0  0  0  0
  3  4  2  0  0  0  0
  3 26  1  0  0  0  0
  4  5  1  0  0  0  0
  4 25  1  0  0  0  0
  5  6  2  0  0  0  0
  5  9  1  0  0  0  0
  6  7  1  0  0  0  0
  7  8  2  0  0  0  0
  7 27  1  0  0  0  0
  8 38  1  0  0  0  0
  8  3  1  0  0  0  0
  9 10  1  0  0  0  0
 10 11  2  0  0  0  0
 11 12  1  0  0  0  0
 12  1  1  0  0  0  0
 12  6  1  0  0  0  0
 13 14  2  0  0  0  0
 13 20  1  0  0  0  0
 13  9  1  0  0  0  0
 14 15  1  0  0  0  0
 15  2  1  0  0  0  0
 15 16  1  0  0  0  0
 16 10  1  0  0  0  0
 16 17  2  0  0  0  0
 17 18  1  0  0  0  0
 17 30  1  0  0  0  0
 18 46  1  0  0  0  0
 18 19  2  0  0  0  0
 19 11  1  0  0  0  0
 19 31  1  0  0  0  0
 20 21  2  0  0  0  0
 21 22  1  0  0  0  0
 21 28  1  0  0  0  0
 22 42  1  0  0  0  0
 22 23  2  0  0  0  0
 23 14  1  0  0  0  0
 23 29  1  0  0  0  0
 24 36  1  0  0  0  0
 24 20  1  0  0  0  0
 25 37  1  0  0  0  0
 32 33  1  0  0  0  0
 32 79  1  0  0  0  0
 32 80  1  0  0  0  0
 33 81  1  0  0  0  0
 33 82  1  0  0  0  0
 33 83  1  0  0  0  0
 34 35  1  0  0  0  0
 34 92  1  0  0  0  0
 34 93  1  0  0  0  0
 35 94  1  0  0  0  0
 35 95  1  0  0  0  0
 35 96  1  0  0  0  0
 36 84  1  0  0  0  0
 36 85  1  0  0  0  0
 36 86  1  0  0  0  0
 37 87  1  0  0  0  0
 37 88  1  0  0  0  0
 37 89  1  0  0  0  0
 38 39  1  0  0  0  0
 38 40  1  0  0  0  0
 38 41  1  0  0  0  0
 39 71  1  0  0  0  0
 39 72  1  0  0  0  0
 39 73  1  0  0  0  0
 40 68  1  0  0  0  0
 40 69  1  0  0  0  0
 40 70  1  0  0  0  0
 41 65  1  0  0  0  0
 41 66  1  0  0  0  0
 41 67  1  0  0  0  0
 42 43  1  0  0  0  0
 42 44  1  0  0  0  0
 42 45  1  0  0  0  0
 43 74  1  0  0  0  0
 43 75  1  0  0  0  0
 43 76  1  0  0  0  0
 44 62  1  0  0  0  0
 44 63  1  0  0  0  0
 44 64  1  0  0  0  0
 45 59  1  0  0  0  0
 45 60  1  0  0  0  0
 45 61  1  0  0  0  0
 46 47  1  0  0  0  0
 46 48  1  0  0  0  0
 46 49  1  0  0  0  0
 47 53  1  0  0  0  0
 47 54  1  0  0  0  0
 47 55  1  0  0  0  0
 48 50  1  0  0  0  0
 48 51  1  0  0  0  0
 48 52  1  0  0  0  0
 49 56  1  0  0  0  0
 49 57  1  0  0  0  0
 49 58  1  0  0  0  0
 97130  1  0  0  0  0
 97186  1  0  0  0  0
 97187  1  0  0  0  0
 98128  1  0  0  0  0
 98173  1  0  0  0  0
 98174  1  0  0  0  0
 99100  2  0  0  0  0
 99122  1  0  0  0  0
100101  1  0  0  0  0
100121  1  0  0  0  0
101102  2  0  0  0  0
101105  1  0  0  0  0
102103  1  0  0  0  0
103104  2  0  0  0  0
103123  1  0  0  0  0
104134  1  0  0  0  0
104 99  1  0  0  0  0
105106  1  0  0  0  0
106107  2  0  0  0  0
107108  1  0  0  0  0
108 97  1  0  0  0  0
108102  1  0  0  0  0
109110  2  0  0  0  0
109116  1  0  0  0  0
109105  1  0  0  0  0
110111  1  0  0  0  0
111 98  1  0  0  0  0
111112  1  0  0  0  0
112106  1  0  0  0  0
112113  2  0  0  0  0
113114  1  0  0  0  0
113126  1  0  0  0  0
114142  1  0  0  0  0
114115  2  0  0  0  0
115107  1  0  0  0  0
115127  1  0  0  0  0
116117  2  0  0  0  0
117118  1  0  0  0  0
117124  1  0  0  0  0
118138  1  0  0  0  0
118119  2  0  0  0  0
119110  1  0  0  0  0
119125  1  0  0  0  0
120132  1  0  0  0  0
120116  1  0  0  0  0
121133  1  0  0  0  0
128129  1  0  0  0  0
128175  1  0  0  0  0
128176  1  0  0  0  0
129177  1  0  0  0  0
129178  1  0  0  0  0
129179  1  0  0  0  0
130131  1  0  0  0  0
130188  1  0  0  0  0
130189  1  0  0  0  0
131190  1  0  0  0  0
131191  1  0  0  0  0
131192  1  0  0  0  0
132180  1  0  0  0  0
132181  1  0  0  0  0
132182  1  0  0  0  0
133183  1  0  0  0  0
133184  1  0  0  0  0
133185  1  0  0  0  0
134135  1  0  0  0  0
134136  1  0  0  0  0
134137  1  0  0  0  0
135167  1  0  0  0  0
135168  1  0  0  0  0
135169  1  0  0  0  0
136164  1  0  0  0  0
136165  1  0  0  0  0
136166  1  0  0  0  0
137161  1  0  0  0  0
137162  1  0  0  0  0
137163  1  0  0  0  0
138139  1  0  0  0  0
138140  1  0  0  0  0
138141  1  0  0  0  0
139170  1  0  0  0  0
139171  1  0  0  0  0
139172  1  0  0  0  0
140158  1  0  0  0  0
140159  1  0  0  0  0
140160  1  0  0  0  0
141155  1  0  0  0  0
141156  1  0  0  0  0
141157  1  0  0  0  0
142143  1  0  0  0  0
142144  1  0  0  0  0
142145  1  0  0  0  0
143149  1  0  0  0  0
143150  1  0  0  0  0
143151  1  0  0  0  0
144146  1  0  0  0  0
144147  1  0  0  0  0
144148  1  0  0  0  0
145152  1  0  0  0  0
145153  1  0  0  0  0
145154  1  0  0  0  0
M  END
