 energy: -414.481620384382 gnorm: 0.000470551496 xtb: 6.7.1 (edcfbbe)
          03032511433D

302324  0     0  0            999 V2000
    2.3381    0.9001    0.0014 C   0  0  0  0  0  0  0  0  0  0  0  0
    1.8781   -0.3444    0.4231 C   0  0  0  0  0  0  0  0  0  0  0  0
    2.8011   -1.2841    0.9613 C   0  0  0  0  0  0  0  0  0  0  0  0
    4.1466   -0.8119    1.1504 C   0  0  0  0  0  0  0  0  0  0  0  0
    4.5676    0.4331    0.6357 C   0  0  0  0  0  0  0  0  0  0  0  0
    3.6782    1.3032    0.0665 C   0  0  0  0  0  0  0  0  0  0  0  0
    2.5287   -2.6240    1.4123 C   0  0  0  0  0  0  0  0  0  0  0  0
    3.4478   -3.1326    2.3561 C   0  0  0  0  0  0  0  0  0  0  0  0
    4.7120   -2.5167    2.5589 C   0  0  0  0  0  0  0  0  0  0  0  0
    5.0803   -1.4497    1.8564 N   0  0  0  0  0  0  0  0  0  0  0  0
    1.4979   -3.5395    1.0020 C   0  0  0  0  0  0  0  0  0  0  0  0
    1.3065   -4.6986    1.8310 C   0  0  0  0  0  0  0  0  0  0  0  0
    2.0507   -4.9958    2.8990 N   0  0  0  0  0  0  0  0  0  0  0  0
    3.1525   -4.2896    3.1229 C   0  0  0  0  0  0  0  0  0  0  0  0
    4.0345   -4.7087    4.1435 C   0  0  0  0  0  0  0  0  0  0  0  0
    5.2683   -4.1081    4.3316 C   0  0  0  0  0  0  0  0  0  0  0  0
    5.6127   -3.0498    3.4991 C   0  0  0  0  0  0  0  0  0  0  0  0
    0.7117   -3.4854   -0.1769 C   0  0  0  0  0  0  0  0  0  0  0  0
   -0.1831   -4.5029   -0.4617 C   0  0  0  0  0  0  0  0  0  0  0  0
   -0.4025   -5.6094    0.3711 C   0  0  0  0  0  0  0  0  0  0  0  0
    0.3291   -5.6702    1.5251 C   0  0  0  0  0  0  0  0  0  0  0  0
    0.5559   -0.5529    0.4068 O   0  0  0  0  0  0  0  0  0  0  0  0
   -3.5750   -2.3457   -0.5615 C   0  0  0  0  0  0  0  0  0  0  0  0
   -2.5938   -1.4357   -0.1633 C   0  0  0  0  0  0  0  0  0  0  0  0
   -2.9793   -0.1443    0.2709 C   0  0  0  0  0  0  0  0  0  0  0  0
   -4.3669   -0.0468    0.6528 C   0  0  0  0  0  0  0  0  0  0  0  0
   -5.3294   -0.9537    0.1511 C   0  0  0  0  0  0  0  0  0  0  0  0
   -4.9495   -2.0804   -0.5287 C   0  0  0  0  0  0  0  0  0  0  0  0
   -2.1889    1.0483    0.4658 C   0  0  0  0  0  0  0  0  0  0  0  0
   -2.7051    1.9371    1.4428 C   0  0  0  0  0  0  0  0  0  0  0  0
   -3.9929    1.7540    2.0117 C   0  0  0  0  0  0  0  0  0  0  0  0
   -4.8339    0.8437    1.5215 N   0  0  0  0  0  0  0  0  0  0  0  0
   -1.1344    1.5706   -0.3488 C   0  0  0  0  0  0  0  0  0  0  0  0
   -0.7035    2.9080   -0.0539 C   0  0  0  0  0  0  0  0  0  0  0  0
   -0.9901    3.5622    1.0756 N   0  0  0  0  0  0  0  0  0  0  0  0
   -2.0072    3.1183    1.8056 C   0  0  0  0  0  0  0  0  0  0  0  0
   -2.5011    3.9596    2.8311 C   0  0  0  0  0  0  0  0  0  0  0  0
   -3.7542    3.7670    3.3860 C   0  0  0  0  0  0  0  0  0  0  0  0
   -4.4832    2.6569    2.9720 C   0  0  0  0  0  0  0  0  0  0  0  0
   -0.6198    1.0182   -1.5702 C   0  0  0  0  0  0  0  0  0  0  0  0
   -0.1206    1.9011   -2.5376 C   0  0  0  0  0  0  0  0  0  0  0  0
    0.1031    3.2626   -2.3120 C   0  0  0  0  0  0  0  0  0  0  0  0
   -0.0612    3.7121   -1.0236 C   0  0  0  0  0  0  0  0  0  0  0  0
   -1.3555   -1.9215   -0.1180 O   0  0  0  0  0  0  0  0  0  0  0  0
   -0.1778   -1.2810   -0.6641 B   0  0  0  0  0  0  0  0  0  0  0  0
    0.7528   -2.4265   -1.1032 N   0  0  0  0  0  0  0  0  0  0  0  0
    2.0447   -3.2584   -3.0109 C   0  0  0  0  0  0  0  0  0  0  0  0
    1.9786   -2.2651   -1.8437 C   0  0  0  0  0  0  0  0  0  0  0  0
   -0.6181   -0.3221   -1.8043 N   0  0  0  0  0  0  0  0  0  0  0  0
   -1.5471   -2.0591   -3.2937 C   0  0  0  0  0  0  0  0  0  0  0  0
   -0.7246   -0.7817   -3.1777 C   0  0  0  0  0  0  0  0  0  0  0  0
   -4.4140    4.7995    4.2868 C   0  0  0  0  0  0  0  0  0  0  0  0
   -5.0112    4.1280    5.5262 C   0  0  0  0  0  0  0  0  0  0  0  0
   -3.4374    5.8832    4.7497 C   0  0  0  0  0  0  0  0  0  0  0  0
   -5.5339    5.4669    3.4726 C   0  0  0  0  0  0  0  0  0  0  0  0
    0.4338    4.2163   -3.4493 C   0  0  0  0  0  0  0  0  0  0  0  0
   -0.9158    4.7601   -3.9479 C   0  0  0  0  0  0  0  0  0  0  0  0
    1.2959    5.3915   -2.9744 C   0  0  0  0  0  0  0  0  0  0  0  0
    1.1453    3.5291   -4.6205 C   0  0  0  0  0  0  0  0  0  0  0  0
   -5.9474   -3.0328   -1.1656 C   0  0  0  0  0  0  0  0  0  0  0  0
   -7.3175   -2.3700   -1.3443 C   0  0  0  0  0  0  0  0  0  0  0  0
   -5.4430   -3.4579   -2.5510 C   0  0  0  0  0  0  0  0  0  0  0  0
   -6.1128   -4.2693   -0.2749 C   0  0  0  0  0  0  0  0  0  0  0  0
   -1.3630   -6.7068   -0.0547 C   0  0  0  0  0  0  0  0  0  0  0  0
   -0.7968   -7.3882   -1.3083 C   0  0  0  0  0  0  0  0  0  0  0  0
   -1.5512   -7.7656    1.0351 C   0  0  0  0  0  0  0  0  0  0  0  0
   -2.7329   -6.0959   -0.3685 C   0  0  0  0  0  0  0  0  0  0  0  0
    6.2652   -4.5794    5.3781 C   0  0  0  0  0  0  0  0  0  0  0  0
    6.7053   -3.3836    6.2332 C   0  0  0  0  0  0  0  0  0  0  0  0
    5.6829   -5.6415    6.3132 C   0  0  0  0  0  0  0  0  0  0  0  0
    7.4795   -5.1743    4.6506 C   0  0  0  0  0  0  0  0  0  0  0  0
    4.0877    2.6597   -0.4772 C   0  0  0  0  0  0  0  0  0  0  0  0
    5.5832    2.9356   -0.2984 C   0  0  0  0  0  0  0  0  0  0  0  0
    5.8221    3.9135   -0.7119 H   0  0  0  0  0  0  0  0  0  0  0  0
    6.1833    2.1935   -0.8192 H   0  0  0  0  0  0  0  0  0  0  0  0
    5.8568    2.9388    0.7538 H   0  0  0  0  0  0  0  0  0  0  0  0
    3.7689    2.6759   -1.9769 C   0  0  0  0  0  0  0  0  0  0  0  0
    4.2997    1.8691   -2.4796 H   0  0  0  0  0  0  0  0  0  0  0  0
    4.0816    3.6191   -2.4206 H   0  0  0  0  0  0  0  0  0  0  0  0
    2.7036    2.5434   -2.1418 H   0  0  0  0  0  0  0  0  0  0  0  0
    3.3051    3.7598    0.2508 C   0  0  0  0  0  0  0  0  0  0  0  0
    3.5331    3.7359    1.3144 H   0  0  0  0  0  0  0  0  0  0  0  0
    2.2336    3.6354    0.1270 H   0  0  0  0  0  0  0  0  0  0  0  0
    3.5846    4.7375   -0.1369 H   0  0  0  0  0  0  0  0  0  0  0  0
    5.8420   -2.9212    6.7064 H   0  0  0  0  0  0  0  0  0  0  0  0
    7.2159   -2.6296    5.6410 H   0  0  0  0  0  0  0  0  0  0  0  0
    7.3836   -3.7164    7.0146 H   0  0  0  0  0  0  0  0  0  0  0  0
    4.8323   -5.2487    6.8650 H   0  0  0  0  0  0  0  0  0  0  0  0
    6.4423   -5.9395    7.0334 H   0  0  0  0  0  0  0  0  0  0  0  0
    5.3813   -6.5297    5.7633 H   0  0  0  0  0  0  0  0  0  0  0  0
    0.4944    2.8131   -5.1162 H   0  0  0  0  0  0  0  0  0  0  0  0
    2.0456    3.0182   -4.2894 H   0  0  0  0  0  0  0  0  0  0  0  0
    1.4308    4.2751   -5.3591 H   0  0  0  0  0  0  0  0  0  0  0  0
    0.7419    6.0412   -2.3028 H   0  0  0  0  0  0  0  0  0  0  0  0
    1.6066    5.9885   -3.8292 H   0  0  0  0  0  0  0  0  0  0  0  0
    2.1838    5.0353   -2.4610 H   0  0  0  0  0  0  0  0  0  0  0  0
   -1.4423    5.2685   -3.1431 H   0  0  0  0  0  0  0  0  0  0  0  0
   -1.5457    3.9488   -4.3072 H   0  0  0  0  0  0  0  0  0  0  0  0
   -0.7595    5.4647   -4.7619 H   0  0  0  0  0  0  0  0  0  0  0  0
   -6.2815    4.7398    3.1666 H   0  0  0  0  0  0  0  0  0  0  0  0
   -5.1254    5.9335    2.5783 H   0  0  0  0  0  0  0  0  0  0  0  0
   -6.0224    6.2331    4.0705 H   0  0  0  0  0  0  0  0  0  0  0  0
   -2.5829    5.4464    5.2606 H   0  0  0  0  0  0  0  0  0  0  0  0
   -3.9411    6.5503    5.4461 H   0  0  0  0  0  0  0  0  0  0  0  0
   -3.0861    6.4799    3.9110 H   0  0  0  0  0  0  0  0  0  0  0  0
   -4.2271    3.6357    6.0915 H   0  0  0  0  0  0  0  0  0  0  0  0
   -5.7618    3.3863    5.2691 H   0  0  0  0  0  0  0  0  0  0  0  0
   -5.4777    4.8722    6.1683 H   0  0  0  0  0  0  0  0  0  0  0  0
   -5.2659   -2.5827   -3.1726 H   0  0  0  0  0  0  0  0  0  0  0  0
   -6.1865   -4.0821   -3.0421 H   0  0  0  0  0  0  0  0  0  0  0  0
   -4.5204   -4.0261   -2.4847 H   0  0  0  0  0  0  0  0  0  0  0  0
   -6.5127   -3.9809    0.6946 H   0  0  0  0  0  0  0  0  0  0  0  0
   -5.1598   -4.7658   -0.1228 H   0  0  0  0  0  0  0  0  0  0  0  0
   -6.8021   -4.9740   -0.7355 H   0  0  0  0  0  0  0  0  0  0  0  0
   -7.2244   -1.4330   -1.8882 H   0  0  0  0  0  0  0  0  0  0  0  0
   -7.7895   -2.1734   -0.3857 H   0  0  0  0  0  0  0  0  0  0  0  0
   -7.9727   -3.0305   -1.9085 H   0  0  0  0  0  0  0  0  0  0  0  0
    7.9415   -4.4423    3.9934 H   0  0  0  0  0  0  0  0  0  0  0  0
    7.1760   -6.0290    4.0494 H   0  0  0  0  0  0  0  0  0  0  0  0
    8.2230   -5.5060    5.3721 H   0  0  0  0  0  0  0  0  0  0  0  0
    6.5723   -2.5637    3.5646 H   0  0  0  0  0  0  0  0  0  0  0  0
    3.7064   -5.5375    4.7462 H   0  0  0  0  0  0  0  0  0  0  0  0
    5.6064    0.6674    0.7891 H   0  0  0  0  0  0  0  0  0  0  0  0
    0.2559   -6.4876    2.2212 H   0  0  0  0  0  0  0  0  0  0  0  0
    1.5932    1.5746   -0.3862 H   0  0  0  0  0  0  0  0  0  0  0  0
   -0.7239   -4.4214   -1.3905 H   0  0  0  0  0  0  0  0  0  0  0  0
   -3.2107   -3.2989   -0.9040 H   0  0  0  0  0  0  0  0  0  0  0  0
    0.1715    1.4886   -3.4874 H   0  0  0  0  0  0  0  0  0  0  0  0
   -6.3549   -0.7183    0.3754 H   0  0  0  0  0  0  0  0  0  0  0  0
    0.1581    4.7220   -0.7222 H   0  0  0  0  0  0  0  0  0  0  0  0
   -5.4873    2.4776    3.3215 H   0  0  0  0  0  0  0  0  0  0  0  0
   -1.8972    4.8155    3.0738 H   0  0  0  0  0  0  0  0  0  0  0  0
   -0.6173   -8.2779    1.2510 H   0  0  0  0  0  0  0  0  0  0  0  0
   -2.2708   -8.5096    0.6989 H   0  0  0  0  0  0  0  0  0  0  0  0
   -1.9298   -7.3145    1.9490 H   0  0  0  0  0  0  0  0  0  0  0  0
   -2.6862   -5.4671   -1.2533 H   0  0  0  0  0  0  0  0  0  0  0  0
   -3.0680   -5.4953    0.4748 H   0  0  0  0  0  0  0  0  0  0  0  0
   -3.4627   -6.8820   -0.5539 H   0  0  0  0  0  0  0  0  0  0  0  0
    0.1722   -7.8323   -1.0899 H   0  0  0  0  0  0  0  0  0  0  0  0
   -0.6697   -6.6753   -2.1191 H   0  0  0  0  0  0  0  0  0  0  0  0
   -1.4697   -8.1745   -1.6442 H   0  0  0  0  0  0  0  0  0  0  0  0
    0.2673   -0.9510   -3.6171 H   0  0  0  0  0  0  0  0  0  0  0  0
   -1.2296   -0.0053   -3.7620 H   0  0  0  0  0  0  0  0  0  0  0  0
   -1.1032   -2.8350   -2.6811 H   0  0  0  0  0  0  0  0  0  0  0  0
   -1.5716   -2.3836   -4.3323 H   0  0  0  0  0  0  0  0  0  0  0  0
   -2.5644   -1.8824   -2.9547 H   0  0  0  0  0  0  0  0  0  0  0  0
    2.8612   -2.4389   -1.2132 H   0  0  0  0  0  0  0  0  0  0  0  0
    2.0347   -1.2392   -2.2161 H   0  0  0  0  0  0  0  0  0  0  0  0
    2.0048   -4.2763   -2.6296 H   0  0  0  0  0  0  0  0  0  0  0  0
    2.9762   -3.1248   -3.5557 H   0  0  0  0  0  0  0  0  0  0  0  0
    1.2117   -3.1118   -3.6924 H   0  0  0  0  0  0  0  0  0  0  0  0
    0.6306    1.9434    9.1279 C   0  0  0  0  0  0  0  0  0  0  0  0
    1.0469    0.8332    8.3781 C   0  0  0  0  0  0  0  0  0  0  0  0
    2.3107    0.2236    8.7035 C   0  0  0  0  0  0  0  0  0  0  0  0
    3.1393    1.0234    9.5822 C   0  0  0  0  0  0  0  0  0  0  0  0
    2.6942    2.2136   10.1944 C   0  0  0  0  0  0  0  0  0  0  0  0
    1.3964    2.6298   10.0711 C   0  0  0  0  0  0  0  0  0  0  0  0
    2.8471   -1.0905    8.4003 C   0  0  0  0  0  0  0  0  0  0  0  0
    4.0288   -1.4767    9.0765 C   0  0  0  0  0  0  0  0  0  0  0  0
    4.8194   -0.5272    9.7701 C   0  0  0  0  0  0  0  0  0  0  0  0
    4.3740    0.7046    9.9723 N   0  0  0  0  0  0  0  0  0  0  0  0
    2.3112   -2.1265    7.5621 C   0  0  0  0  0  0  0  0  0  0  0  0
    2.6837   -3.4815    7.8627 C   0  0  0  0  0  0  0  0  0  0  0  0
    3.7377   -3.8141    8.6020 N   0  0  0  0  0  0  0  0  0  0  0  0
    4.4837   -2.8246    9.0924 C   0  0  0  0  0  0  0  0  0  0  0  0
    5.7149   -3.1492    9.6923 C   0  0  0  0  0  0  0  0  0  0  0  0
    6.5394   -2.1873   10.2639 C   0  0  0  0  0  0  0  0  0  0  0  0
    6.0767   -0.8829   10.3021 C   0  0  0  0  0  0  0  0  0  0  0  0
    1.4653   -1.9644    6.4453 C   0  0  0  0  0  0  0  0  0  0  0  0
    0.7630   -3.0594    5.9408 C   0  0  0  0  0  0  0  0  0  0  0  0
    0.9074   -4.3556    6.4457 C   0  0  0  0  0  0  0  0  0  0  0  0
    1.9270   -4.5563    7.3456 C   0  0  0  0  0  0  0  0  0  0  0  0
    0.0981    0.4451    7.5212 O   0  0  0  0  0  0  0  0  0  0  0  0
   -3.1462   -1.6054    5.2889 C   0  0  0  0  0  0  0  0  0  0  0  0
   -2.3766   -0.6607    5.9807 C   0  0  0  0  0  0  0  0  0  0  0  0
   -3.0021    0.5023    6.5006 C   0  0  0  0  0  0  0  0  0  0  0  0
   -4.4361    0.3483    6.6491 C   0  0  0  0  0  0  0  0  0  0  0  0
   -5.1681   -0.5871    5.8822 C   0  0  0  0  0  0  0  0  0  0  0  0
   -4.5277   -1.5381    5.1273 C   0  0  0  0  0  0  0  0  0  0  0  0
   -2.4760    1.7665    6.9797 C   0  0  0  0  0  0  0  0  0  0  0  0
   -3.2763    2.3977    7.9658 C   0  0  0  0  0  0  0  0  0  0  0  0
   -4.5564    1.8980    8.3257 C   0  0  0  0  0  0  0  0  0  0  0  0
   -5.1583    0.9917    7.5587 N   0  0  0  0  0  0  0  0  0  0  0  0
   -1.3982    2.5725    6.4797 C   0  0  0  0  0  0  0  0  0  0  0  0
   -1.2446    3.8967    7.0083 C   0  0  0  0  0  0  0  0  0  0  0  0
   -1.8995    4.3577    8.0741 N   0  0  0  0  0  0  0  0  0  0  0  0
   -2.8897    3.6239    8.5704 C   0  0  0  0  0  0  0  0  0  0  0  0
   -3.6109    4.1304    9.6718 C   0  0  0  0  0  0  0  0  0  0  0  0
   -4.7763    3.5324   10.1255 C   0  0  0  0  0  0  0  0  0  0  0  0
   -5.2655    2.4490    9.4078 C   0  0  0  0  0  0  0  0  0  0  0  0
   -0.5264    2.2539    5.3973 C   0  0  0  0  0  0  0  0  0  0  0  0
    0.2066    3.2610    4.7638 C   0  0  0  0  0  0  0  0  0  0  0  0
    0.3191    4.5601    5.2653 C   0  0  0  0  0  0  0  0  0  0  0  0
   -0.3702    4.8422    6.4167 C   0  0  0  0  0  0  0  0  0  0  0  0
   -1.1115   -1.0365    6.1479 O   0  0  0  0  0  0  0  0  0  0  0  0
   -0.0205   -0.0828    6.1495 B   0  0  0  0  0  0  0  0  0  0  0  0
    1.3080   -0.7557    5.7935 N   0  0  0  0  0  0  0  0  0  0  0  0
    3.4657   -0.5608    4.6825 C   0  0  0  0  0  0  0  0  0  0  0  0
    2.4666    0.0983    5.6259 C   0  0  0  0  0  0  0  0  0  0  0  0
   -0.3563    0.9571    5.0428 N   0  0  0  0  0  0  0  0  0  0  0  0
   -0.9311   -0.5582    3.1699 C   0  0  0  0  0  0  0  0  0  0  0  0
   -0.0966    0.6205    3.6546 C   0  0  0  0  0  0  0  0  0  0  0  0
   -5.4986    4.1162   11.3286 C   0  0  0  0  0  0  0  0  0  0  0  0
   -6.7210    3.2887   11.7332 C   0  0  0  0  0  0  0  0  0  0  0  0
   -4.5281    4.1559   12.5170 C   0  0  0  0  0  0  0  0  0  0  0  0
   -5.9637    5.5381   10.9860 C   0  0  0  0  0  0  0  0  0  0  0  0
    1.2507    5.5450    4.5787 C   0  0  0  0  0  0  0  0  0  0  0  0
    0.7814    5.7950    3.1393 C   0  0  0  0  0  0  0  0  0  0  0  0
    1.3045    6.8895    5.3091 C   0  0  0  0  0  0  0  0  0  0  0  0
    2.6669    4.9498    4.5636 C   0  0  0  0  0  0  0  0  0  0  0  0
   -5.2892   -2.5171    4.2531 C   0  0  0  0  0  0  0  0  0  0  0  0
   -6.4027   -1.7737    3.5049 C   0  0  0  0  0  0  0  0  0  0  0  0
   -4.3777   -3.1837    3.2173 C   0  0  0  0  0  0  0  0  0  0  0  0
   -5.9013   -3.5978    5.1552 C   0  0  0  0  0  0  0  0  0  0  0  0
    0.0184   -5.5182    6.0386 C   0  0  0  0  0  0  0  0  0  0  0  0
    0.8576   -6.6446    5.4244 C   0  0  0  0  0  0  0  0  0  0  0  0
   -0.6837   -6.0239    7.3093 C   0  0  0  0  0  0  0  0  0  0  0  0
   -1.0551   -5.1038    5.0319 C   0  0  0  0  0  0  0  0  0  0  0  0
    7.8788   -2.6012   10.8532 C   0  0  0  0  0  0  0  0  0  0  0  0
    8.6766   -1.4083   11.3854 C   0  0  0  0  0  0  0  0  0  0  0  0
    7.6281   -3.5753   12.0123 C   0  0  0  0  0  0  0  0  0  0  0  0
    8.7147   -3.2901    9.7659 C   0  0  0  0  0  0  0  0  0  0  0  0
    0.8178    3.7638   10.8993 C   0  0  0  0  0  0  0  0  0  0  0  0
    1.7573    4.1580   12.0448 C   0  0  0  0  0  0  0  0  0  0  0  0
    1.2669    4.8949   12.6779 H   0  0  0  0  0  0  0  0  0  0  0  0
    2.6742    4.6018   11.6655 H   0  0  0  0  0  0  0  0  0  0  0  0
    2.0076    3.2956   12.6580 H   0  0  0  0  0  0  0  0  0  0  0  0
    0.5958    4.9919   10.0092 C   0  0  0  0  0  0  0  0  0  0  0  0
    1.5084    5.2355    9.4688 H   0  0  0  0  0  0  0  0  0  0  0  0
    0.3179    5.8477   10.6213 H   0  0  0  0  0  0  0  0  0  0  0  0
   -0.1997    4.8140    9.2920 H   0  0  0  0  0  0  0  0  0  0  0  0
   -0.5144    3.3157   11.5144 C   0  0  0  0  0  0  0  0  0  0  0  0
   -0.3668    2.4300   12.1291 H   0  0  0  0  0  0  0  0  0  0  0  0
   -1.2505    3.0848   10.7507 H   0  0  0  0  0  0  0  0  0  0  0  0
   -0.9173    4.1074   12.1425 H   0  0  0  0  0  0  0  0  0  0  0  0
    8.1504   -0.9160   12.1995 H   0  0  0  0  0  0  0  0  0  0  0  0
    8.8693   -0.6849   10.5966 H   0  0  0  0  0  0  0  0  0  0  0  0
    9.6348   -1.7547   11.7674 H   0  0  0  0  0  0  0  0  0  0  0  0
    7.0245   -3.0974   12.7810 H   0  0  0  0  0  0  0  0  0  0  0  0
    8.5737   -3.8800   12.4556 H   0  0  0  0  0  0  0  0  0  0  0  0
    7.1057   -4.4657   11.6737 H   0  0  0  0  0  0  0  0  0  0  0  0
    2.7164    4.0575    3.9455 H   0  0  0  0  0  0  0  0  0  0  0  0
    2.9771    4.6850    5.5728 H   0  0  0  0  0  0  0  0  0  0  0  0
    3.3716    5.6768    4.1652 H   0  0  0  0  0  0  0  0  0  0  0  0
    0.3195    7.3474    5.3584 H   0  0  0  0  0  0  0  0  0  0  0  0
    1.9648    7.5674    4.7720 H   0  0  0  0  0  0  0  0  0  0  0  0
    1.6906    6.7700    6.3185 H   0  0  0  0  0  0  0  0  0  0  0  0
   -0.1500    6.3577    3.1419 H   0  0  0  0  0  0  0  0  0  0  0  0
    0.6190    4.8692    2.5941 H   0  0  0  0  0  0  0  0  0  0  0  0
    1.5267    6.3806    2.6049 H   0  0  0  0  0  0  0  0  0  0  0  0
   -6.6364    5.5177   10.1310 H   0  0  0  0  0  0  0  0  0  0  0  0
   -5.1218    6.1802   10.7422 H   0  0  0  0  0  0  0  0  0  0  0  0
   -6.4929    5.9722   11.8314 H   0  0  0  0  0  0  0  0  0  0  0  0
   -4.1640    3.1551   12.7395 H   0  0  0  0  0  0  0  0  0  0  0  0
   -5.0333    4.5436   13.3989 H   0  0  0  0  0  0  0  0  0  0  0  0
   -3.6722    4.7911   12.3087 H   0  0  0  0  0  0  0  0  0  0  0  0
   -6.4401    2.2615   11.9534 H   0  0  0  0  0  0  0  0  0  0  0  0
   -7.4745    3.2916   10.9495 H   0  0  0  0  0  0  0  0  0  0  0  0
   -7.1681    3.7164   12.6282 H   0  0  0  0  0  0  0  0  0  0  0  0
   -3.8393   -2.4386    2.6360 H   0  0  0  0  0  0  0  0  0  0  0  0
   -4.9788   -3.7759    2.5315 H   0  0  0  0  0  0  0  0  0  0  0  0
   -3.6599   -3.8519    3.6857 H   0  0  0  0  0  0  0  0  0  0  0  0
   -6.5709   -3.1527    5.8870 H   0  0  0  0  0  0  0  0  0  0  0  0
   -5.1193   -4.1330    5.6896 H   0  0  0  0  0  0  0  0  0  0  0  0
   -6.4641   -4.3120    4.5578 H   0  0  0  0  0  0  0  0  0  0  0  0
   -5.9887   -0.9367    2.9481 H   0  0  0  0  0  0  0  0  0  0  0  0
   -7.1579   -1.3975    4.1887 H   0  0  0  0  0  0  0  0  0  0  0  0
   -6.8919   -2.4477    2.8048 H   0  0  0  0  0  0  0  0  0  0  0  0
    8.8648   -2.6167    8.9244 H   0  0  0  0  0  0  0  0  0  0  0  0
    8.2278   -4.1918    9.4049 H   0  0  0  0  0  0  0  0  0  0  0  0
    9.6887   -3.5671   10.1635 H   0  0  0  0  0  0  0  0  0  0  0  0
    6.6315   -0.0860   10.7666 H   0  0  0  0  0  0  0  0  0  0  0  0
    5.9893   -4.1916    9.6731 H   0  0  0  0  0  0  0  0  0  0  0  0
    3.4157    2.6947   10.8307 H   0  0  0  0  0  0  0  0  0  0  0  0
    2.2091   -5.5380    7.6907 H   0  0  0  0  0  0  0  0  0  0  0  0
   -0.3742    2.2707    8.9211 H   0  0  0  0  0  0  0  0  0  0  0  0
    0.1121   -2.8659    5.1080 H   0  0  0  0  0  0  0  0  0  0  0  0
   -2.5904   -2.4223    4.8626 H   0  0  0  0  0  0  0  0  0  0  0  0
    0.8054    2.9821    3.9117 H   0  0  0  0  0  0  0  0  0  0  0  0
   -6.2392   -0.5414    5.9841 H   0  0  0  0  0  0  0  0  0  0  0  0
   -0.3139    5.7942    6.9153 H   0  0  0  0  0  0  0  0  0  0  0  0
   -6.2167    1.9964    9.6297 H   0  0  0  0  0  0  0  0  0  0  0  0
   -3.2196    5.0287   10.1216 H   0  0  0  0  0  0  0  0  0  0  0  0
    0.0366   -6.3768    8.0425 H   0  0  0  0  0  0  0  0  0  0  0  0
   -1.3544   -6.8453    7.0649 H   0  0  0  0  0  0  0  0  0  0  0  0
   -1.2669   -5.2242    7.7616 H   0  0  0  0  0  0  0  0  0  0  0  0
   -0.6080   -4.7578    4.1033 H   0  0  0  0  0  0  0  0  0  0  0  0
   -1.6804   -4.3191    5.4512 H   0  0  0  0  0  0  0  0  0  0  0  0
   -1.6895   -5.9590    4.8043 H   0  0  0  0  0  0  0  0  0  0  0  0
    1.6036   -7.0095    6.1252 H   0  0  0  0  0  0  0  0  0  0  0  0
    1.3578   -6.2817    4.5287 H   0  0  0  0  0  0  0  0  0  0  0  0
    0.2126   -7.4791    5.1553 H   0  0  0  0  0  0  0  0  0  0  0  0
    0.9578    0.3703    3.4981 H   0  0  0  0  0  0  0  0  0  0  0  0
   -0.3423    1.4881    3.0377 H   0  0  0  0  0  0  0  0  0  0  0  0
   -0.6968   -1.4452    3.7471 H   0  0  0  0  0  0  0  0  0  0  0  0
   -0.6922   -0.7483    2.1275 H   0  0  0  0  0  0  0  0  0  0  0  0
   -1.9938   -0.3423    3.2622 H   0  0  0  0  0  0  0  0  0  0  0  0
    2.9796    0.3459    6.5624 H   0  0  0  0  0  0  0  0  0  0  0  0
    2.1194    1.0444    5.2063 H   0  0  0  0  0  0  0  0  0  0  0  0
    3.8323   -1.4925    5.1086 H   0  0  0  0  0  0  0  0  0  0  0  0
    4.3117    0.0975    4.5009 H   0  0  0  0  0  0  0  0  0  0  0  0
    2.9834   -0.7823    3.7345 H   0  0  0  0  0  0  0  0  0  0  0  0
  1  2  2  0  0  0  0
  1125  1  0  0  0  0
  2  3  1  0  0  0  0
  3  4  2  0  0  0  0
  3  7  1  0  0  0  0
  4  5  1  0  0  0  0
  5  6  2  0  0  0  0
  5123  1  0  0  0  0
  6  1  1  0  0  0  0
  6 72  1  0  0  0  0
  7  8  1  0  0  0  0
  7 11  2  0  0  0  0
  8  9  1  0  0  0  0
  9 10  2  0  0  0  0
 10  4  1  0  0  0  0
 11 12  1  0  0  0  0
 11 18  1  0  0  0  0
 12 13  2  0  0  0  0
 13 14  1  0  0  0  0
 14  8  1  0  0  0  0
 14 15  2  0  0  0  0
 15 16  1  0  0  0  0
 15122  1  0  0  0  0
 16 68  1  0  0  0  0
 16 17  2  0  0  0  0
 17  9  1  0  0  0  0
 17121  1  0  0  0  0
 18 46  1  0  0  0  0
 18 19  2  0  0  0  0
 19 20  1  0  0  0  0
 19126  1  0  0  0  0
 20 64  1  0  0  0  0
 20 21  2  0  0  0  0
 21 12  1  0  0  0  0
 21124  1  0  0  0  0
 22  2  1  0  0  0  0
 23 24  2  0  0  0  0
 23127  1  0  0  0  0
 24 25  1  0  0  0  0
 24 44  1  0  0  0  0
 25 26  2  0  0  0  0
 25 29  1  0  0  0  0
 26 27  1  0  0  0  0
 27 28  2  0  0  0  0
 27129  1  0  0  0  0
 28 60  1  0  0  0  0
 28 23  1  0  0  0  0
 29 33  2  0  0  0  0
 30 29  1  0  0  0  0
 30 31  1  0  0  0  0
 31 32  2  0  0  0  0
 32 26  1  0  0  0  0
 33 34  1  0  0  0  0
 33 40  1  0  0  0  0
 34 35  2  0  0  0  0
 35 36  1  0  0  0  0
 36 30  1  0  0  0  0
 36 37  2  0  0  0  0
 37 38  1  0  0  0  0
 37132  1  0  0  0  0
 38 52  1  0  0  0  0
 38 39  2  0  0  0  0
 39 31  1  0  0  0  0
 39131  1  0  0  0  0
 40 49  1  0  0  0  0
 40 41  2  0  0  0  0
 41 42  1  0  0  0  0
 41128  1  0  0  0  0
 42 56  1  0  0  0  0
 42 43  2  0  0  0  0
 43 34  1  0  0  0  0
 43130  1  0  0  0  0
 45 46  1  0  0  0  0
 45 49  1  0  0  0  0
 45 22  1  0  0  0  0
 45 44  1  0  0  0  0
 46 48  1  0  0  0  0
 47 48  1  0  0  0  0
 47149  1  0  0  0  0
 47150  1  0  0  0  0
 47151  1  0  0  0  0
 48147  1  0  0  0  0
 48148  1  0  0  0  0
 49 51  1  0  0  0  0
 50 51  1  0  0  0  0
 50144  1  0  0  0  0
 50145  1  0  0  0  0
 50146  1  0  0  0  0
 51142  1  0  0  0  0
 51143  1  0  0  0  0
 52 53  1  0  0  0  0
 52 54  1  0  0  0  0
 52 55  1  0  0  0  0
 53106  1  0  0  0  0
 53107  1  0  0  0  0
 53108  1  0  0  0  0
 54103  1  0  0  0  0
 54104  1  0  0  0  0
 54105  1  0  0  0  0
 55100  1  0  0  0  0
 55101  1  0  0  0  0
 55102  1  0  0  0  0
 56 57  1  0  0  0  0
 56 58  1  0  0  0  0
 56 59  1  0  0  0  0
 57 97  1  0  0  0  0
 57 98  1  0  0  0  0
 57 99  1  0  0  0  0
 58 94  1  0  0  0  0
 58 95  1  0  0  0  0
 58 96  1  0  0  0  0
 59 91  1  0  0  0  0
 59 92  1  0  0  0  0
 59 93  1  0  0  0  0
 60 61  1  0  0  0  0
 60 62  1  0  0  0  0
 60 63  1  0  0  0  0
 61115  1  0  0  0  0
 61116  1  0  0  0  0
 61117  1  0  0  0  0
 62109  1  0  0  0  0
 62110  1  0  0  0  0
 62111  1  0  0  0  0
 63112  1  0  0  0  0
 63113  1  0  0  0  0
 63114  1  0  0  0  0
 64 65  1  0  0  0  0
 64 66  1  0  0  0  0
 64 67  1  0  0  0  0
 65139  1  0  0  0  0
 65140  1  0  0  0  0
 65141  1  0  0  0  0
 66133  1  0  0  0  0
 66134  1  0  0  0  0
 66135  1  0  0  0  0
 67136  1  0  0  0  0
 67137  1  0  0  0  0
 67138  1  0  0  0  0
 68 69  1  0  0  0  0
 68 70  1  0  0  0  0
 68 71  1  0  0  0  0
 69 85  1  0  0  0  0
 69 86  1  0  0  0  0
 69 87  1  0  0  0  0
 70 88  1  0  0  0  0
 70 89  1  0  0  0  0
 70 90  1  0  0  0  0
 71118  1  0  0  0  0
 71119  1  0  0  0  0
 71120  1  0  0  0  0
 72 73  1  0  0  0  0
 72 77  1  0  0  0  0
 72 81  1  0  0  0  0
 73 74  1  0  0  0  0
 73 75  1  0  0  0  0
 73 76  1  0  0  0  0
 77 78  1  0  0  0  0
 77 79  1  0  0  0  0
 77 80  1  0  0  0  0
 81 82  1  0  0  0  0
 81 83  1  0  0  0  0
 81 84  1  0  0  0  0
152153  2  0  0  0  0
152276  1  0  0  0  0
153154  1  0  0  0  0
154155  2  0  0  0  0
154158  1  0  0  0  0
155156  1  0  0  0  0
156157  2  0  0  0  0
156274  1  0  0  0  0
157152  1  0  0  0  0
157223  1  0  0  0  0
158159  1  0  0  0  0
158162  2  0  0  0  0
159160  1  0  0  0  0
160161  2  0  0  0  0
161155  1  0  0  0  0
162163  1  0  0  0  0
162169  1  0  0  0  0
163164  2  0  0  0  0
164165  1  0  0  0  0
165159  1  0  0  0  0
165166  2  0  0  0  0
166167  1  0  0  0  0
166273  1  0  0  0  0
167219  1  0  0  0  0
167168  2  0  0  0  0
168160  1  0  0  0  0
168272  1  0  0  0  0
169197  1  0  0  0  0
169170  2  0  0  0  0
170171  1  0  0  0  0
170277  1  0  0  0  0
171215  1  0  0  0  0
171172  2  0  0  0  0
172163  1  0  0  0  0
172275  1  0  0  0  0
173153  1  0  0  0  0
174175  2  0  0  0  0
174278  1  0  0  0  0
175176  1  0  0  0  0
175195  1  0  0  0  0
176177  2  0  0  0  0
176180  1  0  0  0  0
177178  1  0  0  0  0
178179  2  0  0  0  0
178280  1  0  0  0  0
179211  1  0  0  0  0
179174  1  0  0  0  0
180184  2  0  0  0  0
181180  1  0  0  0  0
181182  1  0  0  0  0
182183  2  0  0  0  0
183177  1  0  0  0  0
184185  1  0  0  0  0
184191  1  0  0  0  0
185186  2  0  0  0  0
186187  1  0  0  0  0
187181  1  0  0  0  0
187188  2  0  0  0  0
188189  1  0  0  0  0
188283  1  0  0  0  0
189203  1  0  0  0  0
189190  2  0  0  0  0
190182  1  0  0  0  0
190282  1  0  0  0  0
191200  1  0  0  0  0
191192  2  0  0  0  0
192193  1  0  0  0  0
192279  1  0  0  0  0
193207  1  0  0  0  0
193194  2  0  0  0  0
194185  1  0  0  0  0
194281  1  0  0  0  0
196197  1  0  0  0  0
196200  1  0  0  0  0
196173  1  0  0  0  0
196195  1  0  0  0  0
197199  1  0  0  0  0
198199  1  0  0  0  0
198300  1  0  0  0  0
198301  1  0  0  0  0
198302  1  0  0  0  0
199298  1  0  0  0  0
199299  1  0  0  0  0
200202  1  0  0  0  0
201202  1  0  0  0  0
201295  1  0  0  0  0
201296  1  0  0  0  0
201297  1  0  0  0  0
202293  1  0  0  0  0
202294  1  0  0  0  0
203204  1  0  0  0  0
203205  1  0  0  0  0
203206  1  0  0  0  0
204257  1  0  0  0  0
204258  1  0  0  0  0
204259  1  0  0  0  0
205254  1  0  0  0  0
205255  1  0  0  0  0
205256  1  0  0  0  0
206251  1  0  0  0  0
206252  1  0  0  0  0
206253  1  0  0  0  0
207208  1  0  0  0  0
207209  1  0  0  0  0
207210  1  0  0  0  0
208248  1  0  0  0  0
208249  1  0  0  0  0
208250  1  0  0  0  0
209245  1  0  0  0  0
209246  1  0  0  0  0
209247  1  0  0  0  0
210242  1  0  0  0  0
210243  1  0  0  0  0
210244  1  0  0  0  0
211212  1  0  0  0  0
211213  1  0  0  0  0
211214  1  0  0  0  0
212266  1  0  0  0  0
212267  1  0  0  0  0
212268  1  0  0  0  0
213260  1  0  0  0  0
213261  1  0  0  0  0
213262  1  0  0  0  0
214263  1  0  0  0  0
214264  1  0  0  0  0
214265  1  0  0  0  0
215216  1  0  0  0  0
215217  1  0  0  0  0
215218  1  0  0  0  0
216290  1  0  0  0  0
216291  1  0  0  0  0
216292  1  0  0  0  0
217284  1  0  0  0  0
217285  1  0  0  0  0
217286  1  0  0  0  0
218287  1  0  0  0  0
218288  1  0  0  0  0
218289  1  0  0  0  0
219220  1  0  0  0  0
219221  1  0  0  0  0
219222  1  0  0  0  0
220236  1  0  0  0  0
220237  1  0  0  0  0
220238  1  0  0  0  0
221239  1  0  0  0  0
221240  1  0  0  0  0
221241  1  0  0  0  0
222269  1  0  0  0  0
222270  1  0  0  0  0
222271  1  0  0  0  0
223224  1  0  0  0  0
223228  1  0  0  0  0
223232  1  0  0  0  0
224225  1  0  0  0  0
224226  1  0  0  0  0
224227  1  0  0  0  0
228229  1  0  0  0  0
228230  1  0  0  0  0
228231  1  0  0  0  0
232233  1  0  0  0  0
232234  1  0  0  0  0
232235  1  0  0  0  0
M  CHG  1   8   1
M  CHG  1  45  -1
M  CHG  1 159   1
M  CHG  1 196  -1
M  END
