 energy: -227.995369770079 gnorm: 0.000287814822 xtb: 6.6.1 (8d0f1dd)
          11142415513D

140156  0     0  0            999 V2000
   -3.9141    1.6899   -0.8688 C   0  0  0  0  0  0  0  0  0  0  0  0
   -3.2596    2.1221   -2.0625 C   0  0  0  0  0  0  0  0  0  0  0  0
   -3.2246    1.3527    0.3368 C   0  0  0  0  0  0  0  0  0  0  0  0
   -5.3170    1.5376   -0.8963 C   0  0  0  0  0  0  0  0  0  0  0  0
   -4.0055    2.7986   -3.0434 C   0  0  0  0  0  0  0  0  0  0  0  0
   -3.8209    0.4298    1.2132 C   0  0  0  0  0  0  0  0  0  0  0  0
   -1.8780    1.8412   -2.3344 C   0  0  0  0  0  0  0  0  0  0  0  0
   -1.9537    1.9152    0.7011 C   0  0  0  0  0  0  0  0  0  0  0  0
   -1.2027    2.5676   -3.3437 C   0  0  0  0  0  0  0  0  0  0  0  0
   -1.1466    1.2174    1.6272 C   0  0  0  0  0  0  0  0  0  0  0  0
   -6.0510    2.1290   -1.9536 C   0  0  0  0  0  0  0  0  0  0  0  0
   -5.9426    0.7701    0.1174 C   0  0  0  0  0  0  0  0  0  0  0  0
   -5.4184    2.8194   -2.9422 C   0  0  0  0  0  0  0  0  0  0  0  0
   -5.1996    0.1405    1.0692 C   0  0  0  0  0  0  0  0  0  0  0  0
   -3.3204    3.4344   -4.1151 C   0  0  0  0  0  0  0  0  0  0  0  0
   -3.0116   -0.2057    2.1945 C   0  0  0  0  0  0  0  0  0  0  0  0
   -1.9660    3.3893   -4.2155 C   0  0  0  0  0  0  0  0  0  0  0  0
   -1.6973    0.1050    2.3205 C   0  0  0  0  0  0  0  0  0  0  0  0
   -1.1686    0.8494   -1.6493 C   0  0  0  0  0  0  0  0  0  0  0  0
   -1.4909    3.1412    0.1976 C   0  0  0  0  0  0  0  0  0  0  0  0
    0.1949    2.4282   -3.4622 C   0  0  0  0  0  0  0  0  0  0  0  0
    0.1665    1.6612    1.8511 C   0  0  0  0  0  0  0  0  0  0  0  0
    0.2065    0.7724   -1.7311 C   0  0  0  0  0  0  0  0  0  0  0  0
   -0.2322    3.5943    0.4959 C   0  0  0  0  0  0  0  0  0  0  0  0
    0.9010    1.6059   -2.6249 C   0  0  0  0  0  0  0  0  0  0  0  0
    0.6232    2.8228    1.2855 C   0  0  0  0  0  0  0  0  0  0  0  0
   -7.1276    2.0451   -1.9430 H   0  0  0  0  0  0  0  0  0  0  0  0
   -7.0137    0.6385    0.0755 H   0  0  0  0  0  0  0  0  0  0  0  0
   -5.9839    3.3386   -3.7014 H   0  0  0  0  0  0  0  0  0  0  0  0
   -5.6568   -0.5491    1.7631 H   0  0  0  0  0  0  0  0  0  0  0  0
   -3.9055    3.9874   -4.8350 H   0  0  0  0  0  0  0  0  0  0  0  0
   -3.4563   -0.9800    2.8025 H   0  0  0  0  0  0  0  0  0  0  0  0
   -1.4517    3.9368   -4.9912 H   0  0  0  0  0  0  0  0  0  0  0  0
   -1.0556   -0.4450    2.9941 H   0  0  0  0  0  0  0  0  0  0  0  0
   -1.6885    0.1459   -1.0208 H   0  0  0  0  0  0  0  0  0  0  0  0
   -2.1451    3.7367   -0.4207 H   0  0  0  0  0  0  0  0  0  0  0  0
    0.7082    3.0044   -4.2178 H   0  0  0  0  0  0  0  0  0  0  0  0
    0.8082    1.0862    2.5039 H   0  0  0  0  0  0  0  0  0  0  0  0
    0.1072    4.5439    0.1118 H   0  0  0  0  0  0  0  0  0  0  0  0
    1.6297    3.1608    1.4816 H   0  0  0  0  0  0  0  0  0  0  0  0
    0.8825   -0.0702   -0.7522 C   0  0  0  0  0  0  0  0  0  0  0  0
    2.1078    0.2611   -0.3778 N   0  0  0  0  0  0  0  0  0  0  0  0
    2.5986   -0.3345    0.7091 N   0  0  0  0  0  0  0  0  0  0  0  0
    1.8753   -1.2469    1.4593 C   0  0  0  0  0  0  0  0  0  0  0  0
    0.7455   -1.7226    0.8056 N   0  0  0  0  0  0  0  0  0  0  0  0
    0.2128   -1.0900   -0.2365 N   0  0  0  0  0  0  0  0  0  0  0  0
    2.1842   -1.5800    2.5855 O   0  0  0  0  0  0  0  0  0  0  0  0
    0.0435   -2.8506    1.2766 C   0  0  0  0  0  0  0  0  0  0  0  0
    0.6916   -3.8765    1.9608 C   0  0  0  0  0  0  0  0  0  0  0  0
   -0.0313   -4.9789    2.3757 C   0  0  0  0  0  0  0  0  0  0  0  0
   -1.3889   -5.0694    2.1147 C   0  0  0  0  0  0  0  0  0  0  0  0
   -2.0275   -4.0526    1.4208 C   0  0  0  0  0  0  0  0  0  0  0  0
   -1.3188   -2.9476    0.9953 C   0  0  0  0  0  0  0  0  0  0  0  0
    3.8616    0.1205    1.1426 C   0  0  0  0  0  0  0  0  0  0  0  0
    4.2204    1.4355    0.8545 C   0  0  0  0  0  0  0  0  0  0  0  0
    5.4503    1.9117    1.2614 C   0  0  0  0  0  0  0  0  0  0  0  0
    6.3270    1.0834    1.9457 C   0  0  0  0  0  0  0  0  0  0  0  0
    5.9749   -0.2304    2.2101 C   0  0  0  0  0  0  0  0  0  0  0  0
    4.7456   -0.7207    1.8109 C   0  0  0  0  0  0  0  0  0  0  0  0
    3.5237    2.0582    0.3161 H   0  0  0  0  0  0  0  0  0  0  0  0
    5.7261    2.9319    1.0442 H   0  0  0  0  0  0  0  0  0  0  0  0
    7.2878    1.4571    2.2635 H   0  0  0  0  0  0  0  0  0  0  0  0
    6.6656   -0.8838    2.7200 H   0  0  0  0  0  0  0  0  0  0  0  0
    4.4889   -1.7501    2.0012 H   0  0  0  0  0  0  0  0  0  0  0  0
    1.7495   -3.8322    2.1597 H   0  0  0  0  0  0  0  0  0  0  0  0
    0.4765   -5.7731    2.8996 H   0  0  0  0  0  0  0  0  0  0  0  0
   -1.9439   -5.9350    2.4409 H   0  0  0  0  0  0  0  0  0  0  0  0
   -3.0823   -4.1220    1.2042 H   0  0  0  0  0  0  0  0  0  0  0  0
   -1.7990   -2.1527    0.4490 H   0  0  0  0  0  0  0  0  0  0  0  0
    1.9767    1.5487   -2.6704 H   0  0  0  0  0  0  0  0  0  0  0  0
   -2.9147    2.0972    4.8928 C   0  0  0  0  0  0  0  0  0  0  0  0
   -1.8723    2.9959    4.4937 C   0  0  0  0  0  0  0  0  0  0  0  0
   -2.7959    1.1203    5.9351 C   0  0  0  0  0  0  0  0  0  0  0  0
   -4.1445    2.1703    4.1971 C   0  0  0  0  0  0  0  0  0  0  0  0
   -2.2159    4.1487    3.7612 C   0  0  0  0  0  0  0  0  0  0  0  0
   -3.6781    0.0214    5.9289 C   0  0  0  0  0  0  0  0  0  0  0  0
   -0.4689    2.7368    4.6884 C   0  0  0  0  0  0  0  0  0  0  0  0
   -1.8700    1.2241    7.0338 C   0  0  0  0  0  0  0  0  0  0  0  0
    0.4753    3.7691    4.4617 C   0  0  0  0  0  0  0  0  0  0  0  0
   -1.6005    0.0764    7.8183 C   0  0  0  0  0  0  0  0  0  0  0  0
   -4.4159    3.2709    3.3517 C   0  0  0  0  0  0  0  0  0  0  0  0
   -5.1019    1.1384    4.3436 C   0  0  0  0  0  0  0  0  0  0  0  0
   -3.5143    4.2779    3.2159 C   0  0  0  0  0  0  0  0  0  0  0  0
   -4.8288    0.0478    5.1058 C   0  0  0  0  0  0  0  0  0  0  0  0
   -1.2498    5.1691    3.5507 C   0  0  0  0  0  0  0  0  0  0  0  0
   -3.4177   -1.0975    6.7644 C   0  0  0  0  0  0  0  0  0  0  0  0
    0.0340    5.0200    3.9585 C   0  0  0  0  0  0  0  0  0  0  0  0
   -2.3619   -1.1057    7.6140 C   0  0  0  0  0  0  0  0  0  0  0  0
    0.0222    1.4542    4.9533 C   0  0  0  0  0  0  0  0  0  0  0  0
   -1.2723    2.4375    7.4148 C   0  0  0  0  0  0  0  0  0  0  0  0
    1.8470    3.5089    4.6465 C   0  0  0  0  0  0  0  0  0  0  0  0
   -0.6334    0.1457    8.8353 C   0  0  0  0  0  0  0  0  0  0  0  0
    1.3766    1.1978    5.0435 C   0  0  0  0  0  0  0  0  0  0  0  0
   -0.3608    2.4892    8.4386 C   0  0  0  0  0  0  0  0  0  0  0  0
    2.3012    2.2523    4.9325 C   0  0  0  0  0  0  0  0  0  0  0  0
   -0.0043    1.3277    9.1281 C   0  0  0  0  0  0  0  0  0  0  0  0
   -5.3707    3.3091    2.8484 H   0  0  0  0  0  0  0  0  0  0  0  0
   -6.0312    1.2212    3.8001 H   0  0  0  0  0  0  0  0  0  0  0  0
   -3.7491    5.1617    2.6420 H   0  0  0  0  0  0  0  0  0  0  0  0
   -5.5144   -0.7863    5.1511 H   0  0  0  0  0  0  0  0  0  0  0  0
   -1.5729    6.0779    3.0648 H   0  0  0  0  0  0  0  0  0  0  0  0
   -4.0764   -1.9510    6.6944 H   0  0  0  0  0  0  0  0  0  0  0  0
    0.7540    5.8153    3.8366 H   0  0  0  0  0  0  0  0  0  0  0  0
   -2.1312   -1.9799    8.2053 H   0  0  0  0  0  0  0  0  0  0  0  0
   -0.6552    0.6210    5.0172 H   0  0  0  0  0  0  0  0  0  0  0  0
   -1.5639    3.3502    6.9183 H   0  0  0  0  0  0  0  0  0  0  0  0
    2.5462    4.3212    4.5107 H   0  0  0  0  0  0  0  0  0  0  0  0
   -0.4183   -0.7468    9.4056 H   0  0  0  0  0  0  0  0  0  0  0  0
    0.0776    3.4344    8.7211 H   0  0  0  0  0  0  0  0  0  0  0  0
    0.7332    1.3750    9.9152 H   0  0  0  0  0  0  0  0  0  0  0  0
    1.8287   -0.1819    5.1393 C   0  0  0  0  0  0  0  0  0  0  0  0
    3.1280   -0.4273    5.1336 N   0  0  0  0  0  0  0  0  0  0  0  0
    3.5341   -1.6808    5.0595 N   0  0  0  0  0  0  0  0  0  0  0  0
    2.6457   -2.7548    4.9414 C   0  0  0  0  0  0  0  0  0  0  0  0
    1.3185   -2.3878    5.1935 N   0  0  0  0  0  0  0  0  0  0  0  0
    0.9126   -1.1355    5.2303 N   0  0  0  0  0  0  0  0  0  0  0  0
    2.9725   -3.8847    4.6887 O   0  0  0  0  0  0  0  0  0  0  0  0
    0.3053   -3.3570    5.3439 C   0  0  0  0  0  0  0  0  0  0  0  0
    0.5671   -4.6182    5.8743 C   0  0  0  0  0  0  0  0  0  0  0  0
   -0.4706   -5.5193    6.0236 C   0  0  0  0  0  0  0  0  0  0  0  0
   -1.7614   -5.1784    5.6523 C   0  0  0  0  0  0  0  0  0  0  0  0
   -2.0197   -3.9178    5.1368 C   0  0  0  0  0  0  0  0  0  0  0  0
   -0.9965   -3.0051    4.9890 C   0  0  0  0  0  0  0  0  0  0  0  0
    4.9328   -1.8534    5.1199 C   0  0  0  0  0  0  0  0  0  0  0  0
    5.6733   -0.8380    5.7316 C   0  0  0  0  0  0  0  0  0  0  0  0
    7.0461   -0.9367    5.8144 C   0  0  0  0  0  0  0  0  0  0  0  0
    7.6988   -2.0434    5.2901 C   0  0  0  0  0  0  0  0  0  0  0  0
    6.9648   -3.0477    4.6800 C   0  0  0  0  0  0  0  0  0  0  0  0
    5.5866   -2.9633    4.5881 C   0  0  0  0  0  0  0  0  0  0  0  0
    5.1544    0.0115    6.1453 H   0  0  0  0  0  0  0  0  0  0  0  0
    7.6094   -0.1526    6.2960 H   0  0  0  0  0  0  0  0  0  0  0  0
    8.7725   -2.1222    5.3589 H   0  0  0  0  0  0  0  0  0  0  0  0
    7.4674   -3.9078    4.2655 H   0  0  0  0  0  0  0  0  0  0  0  0
    5.0346   -3.7501    4.1047 H   0  0  0  0  0  0  0  0  0  0  0  0
    1.5634   -4.8947    6.1760 H   0  0  0  0  0  0  0  0  0  0  0  0
   -0.2673   -6.4936    6.4400 H   0  0  0  0  0  0  0  0  0  0  0  0
   -2.5627   -5.8914    5.7697 H   0  0  0  0  0  0  0  0  0  0  0  0
   -3.0216   -3.6441    4.8463 H   0  0  0  0  0  0  0  0  0  0  0  0
   -1.1883   -2.0216    4.5939 H   0  0  0  0  0  0  0  0  0  0  0  0
    3.3543    2.0430    5.0305 H   0  0  0  0  0  0  0  0  0  0  0  0
  1  2  1  0  0  0  0
  1  3  1  0  0  0  0
  1  4  2  0  0  0  0
  2  5  2  0  0  0  0
  2  7  1  0  0  0  0
  3  6  2  0  0  0  0
  3  8  1  0  0  0  0
  4 11  1  0  0  0  0
  4 12  1  0  0  0  0
  5 13  1  0  0  0  0
  5 15  1  0  0  0  0
  6 14  1  0  0  0  0
  6 16  1  0  0  0  0
  7  9  1  0  0  0  0
  7 19  2  0  0  0  0
  8 10  1  0  0  0  0
  8 20  2  0  0  0  0
  9 17  1  0  0  0  0
  9 21  2  0  0  0  0
 10 18  1  0  0  0  0
 10 22  2  0  0  0  0
 11 13  2  0  0  0  0
 11 27  1  0  0  0  0
 12 14  2  0  0  0  0
 12 28  1  0  0  0  0
 13 29  1  0  0  0  0
 14 30  1  0  0  0  0
 15 17  2  0  0  0  0
 15 31  1  0  0  0  0
 16 18  2  0  0  0  0
 16 32  1  0  0  0  0
 17 33  1  0  0  0  0
 18 34  1  0  0  0  0
 19 23  1  0  0  0  0
 19 35  1  0  0  0  0
 20 24  1  0  0  0  0
 20 36  1  0  0  0  0
 21 25  1  0  0  0  0
 21 37  1  0  0  0  0
 22 26  1  0  0  0  0
 22 38  1  0  0  0  0
 23 25  2  0  0  0  0
 23 41  1  0  0  0  0
 24 26  2  0  0  0  0
 24 39  1  0  0  0  0
 25 70  1  0  0  0  0
 26 40  1  0  0  0  0
 41 42  2  0  0  0  0
 42 43  1  0  0  0  0
 43 54  1  0  0  0  0
 43 44  1  0  0  0  0
 44 45  1  0  0  0  0
 44 47  2  0  0  0  0
 45 48  1  0  0  0  0
 45 46  1  0  0  0  0
 46 41  1  0  0  0  0
 48 49  2  0  0  0  0
 48 53  1  0  0  0  0
 49 50  1  0  0  0  0
 49 65  1  0  0  0  0
 50 51  2  0  0  0  0
 50 66  1  0  0  0  0
 51 52  1  0  0  0  0
 51 67  1  0  0  0  0
 52 53  2  0  0  0  0
 52 68  1  0  0  0  0
 53 69  1  0  0  0  0
 54 55  2  0  0  0  0
 54 59  1  0  0  0  0
 55 56  1  0  0  0  0
 55 60  1  0  0  0  0
 56 57  2  0  0  0  0
 56 61  1  0  0  0  0
 57 58  1  0  0  0  0
 57 62  1  0  0  0  0
 58 59  2  0  0  0  0
 58 63  1  0  0  0  0
 59 64  1  0  0  0  0
 71 72  1  0  0  0  0
 71 73  1  0  0  0  0
 71 74  2  0  0  0  0
 72 75  2  0  0  0  0
 72 77  1  0  0  0  0
 73 76  2  0  0  0  0
 73 78  1  0  0  0  0
 74 81  1  0  0  0  0
 74 82  1  0  0  0  0
 75 83  1  0  0  0  0
 75 85  1  0  0  0  0
 76 84  1  0  0  0  0
 76 86  1  0  0  0  0
 77 79  1  0  0  0  0
 77 89  2  0  0  0  0
 78 80  1  0  0  0  0
 78 90  2  0  0  0  0
 79 87  1  0  0  0  0
 79 91  2  0  0  0  0
 80 88  1  0  0  0  0
 80 92  2  0  0  0  0
 81 83  2  0  0  0  0
 81 97  1  0  0  0  0
 82 84  2  0  0  0  0
 82 98  1  0  0  0  0
 83 99  1  0  0  0  0
 84100  1  0  0  0  0
 85 87  2  0  0  0  0
 85101  1  0  0  0  0
 86 88  2  0  0  0  0
 86102  1  0  0  0  0
 87103  1  0  0  0  0
 88104  1  0  0  0  0
 89 93  1  0  0  0  0
 89105  1  0  0  0  0
 90 94  1  0  0  0  0
 90106  1  0  0  0  0
 91 95  1  0  0  0  0
 91107  1  0  0  0  0
 92 96  1  0  0  0  0
 92108  1  0  0  0  0
 93 95  2  0  0  0  0
 93111  1  0  0  0  0
 94 96  2  0  0  0  0
 94109  1  0  0  0  0
 95140  1  0  0  0  0
 96110  1  0  0  0  0
111112  2  0  0  0  0
112113  1  0  0  0  0
113124  1  0  0  0  0
113114  1  0  0  0  0
114115  1  0  0  0  0
114117  2  0  0  0  0
115118  1  0  0  0  0
115116  1  0  0  0  0
116111  1  0  0  0  0
118119  2  0  0  0  0
118123  1  0  0  0  0
119120  1  0  0  0  0
119135  1  0  0  0  0
120121  2  0  0  0  0
120136  1  0  0  0  0
121122  1  0  0  0  0
121137  1  0  0  0  0
122123  2  0  0  0  0
122138  1  0  0  0  0
123139  1  0  0  0  0
124125  2  0  0  0  0
124129  1  0  0  0  0
125126  1  0  0  0  0
125130  1  0  0  0  0
126127  2  0  0  0  0
126131  1  0  0  0  0
127128  1  0  0  0  0
127132  1  0  0  0  0
128129  2  0  0  0  0
128133  1  0  0  0  0
129134  1  0  0  0  0
M  CHG  1   1   1
M  END
