 energy: -228.373412869079 gnorm: 0.000306733583 xtb: 6.6.1 (8d0f1dd)
          11142415453D

140156  0     0  0            999 V2000
   -3.5904    1.6468   -0.1418 C   0  0  0  0  0  0  0  0  0  0  0  0
   -3.1463    2.3670   -1.3013 C   0  0  0  0  0  0  0  0  0  0  0  0
   -2.7369    1.0702    0.8560 C   0  0  0  0  0  0  0  0  0  0  0  0
   -4.9854    1.4620    0.0087 C   0  0  0  0  0  0  0  0  0  0  0  0
   -4.0569    3.2258   -1.9476 C   0  0  0  0  0  0  0  0  0  0  0  0
   -3.2365    0.0042    1.6265 C   0  0  0  0  0  0  0  0  0  0  0  0
   -1.8438    2.2072   -1.8961 C   0  0  0  0  0  0  0  0  0  0  0  0
   -1.4028    1.5323    1.1401 C   0  0  0  0  0  0  0  0  0  0  0  0
   -1.4090    3.1313   -2.8784 C   0  0  0  0  0  0  0  0  0  0  0  0
   -0.5264    0.6961    1.8705 C   0  0  0  0  0  0  0  0  0  0  0  0
   -5.8888    2.2624   -0.7297 C   0  0  0  0  0  0  0  0  0  0  0  0
   -5.4741    0.4639    0.8829 C   0  0  0  0  0  0  0  0  0  0  0  0
   -5.4300    3.1923   -1.6054 C   0  0  0  0  0  0  0  0  0  0  0  0
   -4.6144   -0.3124    1.5906 C   0  0  0  0  0  0  0  0  0  0  0  0
   -3.6058    4.1067   -2.9665 C   0  0  0  0  0  0  0  0  0  0  0  0
   -2.3554   -0.7593    2.4365 C   0  0  0  0  0  0  0  0  0  0  0  0
   -2.3133    4.1063   -3.3730 C   0  0  0  0  0  0  0  0  0  0  0  0
   -1.0329   -0.4758    2.4914 C   0  0  0  0  0  0  0  0  0  0  0  0
   -0.9830    1.1491   -1.5693 C   0  0  0  0  0  0  0  0  0  0  0  0
   -0.9307    2.7973    0.7518 C   0  0  0  0  0  0  0  0  0  0  0  0
   -0.0945    3.0482   -3.3750 C   0  0  0  0  0  0  0  0  0  0  0  0
    0.8227    1.0615    2.0090 C   0  0  0  0  0  0  0  0  0  0  0  0
    0.3194    1.1175   -2.0208 C   0  0  0  0  0  0  0  0  0  0  0  0
    0.3794    3.1524    0.9391 C   0  0  0  0  0  0  0  0  0  0  0  0
    0.7728    2.0938   -2.9241 C   0  0  0  0  0  0  0  0  0  0  0  0
    1.2790    2.2575    1.5241 C   0  0  0  0  0  0  0  0  0  0  0  0
   -6.9481    2.1375   -0.5557 H   0  0  0  0  0  0  0  0  0  0  0  0
   -6.5416    0.3034    0.9335 H   0  0  0  0  0  0  0  0  0  0  0  0
   -6.1069    3.8654   -2.1113 H   0  0  0  0  0  0  0  0  0  0  0  0
   -4.9701   -1.1419    2.1836 H   0  0  0  0  0  0  0  0  0  0  0  0
   -4.3221    4.7905   -3.3994 H   0  0  0  0  0  0  0  0  0  0  0  0
   -2.7690   -1.5986    2.9772 H   0  0  0  0  0  0  0  0  0  0  0  0
   -1.9613    4.8112   -4.1123 H   0  0  0  0  0  0  0  0  0  0  0  0
   -0.3497   -1.0934    3.0549 H   0  0  0  0  0  0  0  0  0  0  0  0
   -1.3215    0.3405   -0.9447 H   0  0  0  0  0  0  0  0  0  0  0  0
   -1.6168    3.5057    0.3135 H   0  0  0  0  0  0  0  0  0  0  0  0
    0.2210    3.7671   -4.1179 H   0  0  0  0  0  0  0  0  0  0  0  0
    1.4907    0.3862    2.5254 H   0  0  0  0  0  0  0  0  0  0  0  0
    0.7223    4.1281    0.6284 H   0  0  0  0  0  0  0  0  0  0  0  0
    2.3198    2.5282    1.6255 H   0  0  0  0  0  0  0  0  0  0  0  0
    1.2565    0.1343   -1.4755 C   0  0  0  0  0  0  0  0  0  0  0  0
    2.5219    0.2579   -1.8283 N   0  0  0  0  0  0  0  0  0  0  0  0
    3.4064   -0.6013   -1.2773 N   0  0  0  0  0  0  0  0  0  0  0  0
    3.0625   -1.5130   -0.2881 C   0  0  0  0  0  0  0  0  0  0  0  0
    1.7045   -1.5387    0.0031 N   0  0  0  0  0  0  0  0  0  0  0  0
    0.7926   -0.7583   -0.6183 N   0  0  0  0  0  0  0  0  0  0  0  0
    3.8704   -2.2249    0.2629 O   0  0  0  0  0  0  0  0  0  0  0  0
    1.1728   -2.4284    0.9575 C   0  0  0  0  0  0  0  0  0  0  0  0
    1.8790   -2.7941    2.1012 C   0  0  0  0  0  0  0  0  0  0  0  0
    1.3033   -3.6691    3.0045 C   0  0  0  0  0  0  0  0  0  0  0  0
    0.0301   -4.1717    2.7912 C   0  0  0  0  0  0  0  0  0  0  0  0
   -0.6781   -3.7864    1.6640 C   0  0  0  0  0  0  0  0  0  0  0  0
   -0.1151   -2.9186    0.7499 C   0  0  0  0  0  0  0  0  0  0  0  0
    4.7353   -0.4339   -1.7129 C   0  0  0  0  0  0  0  0  0  0  0  0
    5.1231    0.8322   -2.1505 C   0  0  0  0  0  0  0  0  0  0  0  0
    6.4077    1.0403   -2.6090 C   0  0  0  0  0  0  0  0  0  0  0  0
    7.3163   -0.0061   -2.6383 C   0  0  0  0  0  0  0  0  0  0  0  0
    6.9265   -1.2645   -2.2117 C   0  0  0  0  0  0  0  0  0  0  0  0
    5.6413   -1.4897   -1.7533 C   0  0  0  0  0  0  0  0  0  0  0  0
    4.4047    1.6357   -2.1178 H   0  0  0  0  0  0  0  0  0  0  0  0
    6.7031    2.0245   -2.9410 H   0  0  0  0  0  0  0  0  0  0  0  0
    8.3222    0.1588   -2.9940 H   0  0  0  0  0  0  0  0  0  0  0  0
    7.6269   -2.0855   -2.2411 H   0  0  0  0  0  0  0  0  0  0  0  0
    5.3487   -2.4742   -1.4301 H   0  0  0  0  0  0  0  0  0  0  0  0
    2.8677   -2.4059    2.2816 H   0  0  0  0  0  0  0  0  0  0  0  0
    1.8560   -3.9655    3.8839 H   0  0  0  0  0  0  0  0  0  0  0  0
   -0.4059   -4.8570    3.5023 H   0  0  0  0  0  0  0  0  0  0  0  0
   -1.6728   -4.1693    1.4928 H   0  0  0  0  0  0  0  0  0  0  0  0
   -0.6538   -2.6093   -0.1315 H   0  0  0  0  0  0  0  0  0  0  0  0
    1.7937    2.0521   -3.2674 H   0  0  0  0  0  0  0  0  0  0  0  0
   -3.4202    2.0371    4.6630 C   0  0  0  0  0  0  0  0  0  0  0  0
   -2.3539    2.8848    4.2172 C   0  0  0  0  0  0  0  0  0  0  0  0
   -3.3406    1.1329    5.7750 C   0  0  0  0  0  0  0  0  0  0  0  0
   -4.6411    2.0922    3.9511 C   0  0  0  0  0  0  0  0  0  0  0  0
   -2.6618    3.9911    3.4032 C   0  0  0  0  0  0  0  0  0  0  0  0
   -4.2449    0.0555    5.8287 C   0  0  0  0  0  0  0  0  0  0  0  0
   -0.9638    2.6353    4.4929 C   0  0  0  0  0  0  0  0  0  0  0  0
   -2.4344    1.2900    6.8838 C   0  0  0  0  0  0  0  0  0  0  0  0
   -0.0088    3.6552    4.2680 C   0  0  0  0  0  0  0  0  0  0  0  0
   -2.1967    0.1897    7.7422 C   0  0  0  0  0  0  0  0  0  0  0  0
   -4.8784    3.1394    3.0302 C   0  0  0  0  0  0  0  0  0  0  0  0
   -5.6238    1.0949    4.1556 C   0  0  0  0  0  0  0  0  0  0  0  0
   -3.9500    4.1095    2.8310 C   0  0  0  0  0  0  0  0  0  0  0  0
   -5.3834    0.0504    4.9889 C   0  0  0  0  0  0  0  0  0  0  0  0
   -1.6745    4.9818    3.1526 C   0  0  0  0  0  0  0  0  0  0  0  0
   -4.0257   -1.0088    6.7445 C   0  0  0  0  0  0  0  0  0  0  0  0
   -0.4143    4.8587    3.6354 C   0  0  0  0  0  0  0  0  0  0  0  0
   -2.9831   -0.9854    7.6082 C   0  0  0  0  0  0  0  0  0  0  0  0
   -0.4966    1.3840    4.9085 C   0  0  0  0  0  0  0  0  0  0  0  0
   -1.8204    2.5142    7.2002 C   0  0  0  0  0  0  0  0  0  0  0  0
    1.3347    3.4335    4.6245 C   0  0  0  0  0  0  0  0  0  0  0  0
   -1.2312    0.3007    8.7568 C   0  0  0  0  0  0  0  0  0  0  0  0
    0.8279    1.1737    5.2240 C   0  0  0  0  0  0  0  0  0  0  0  0
   -0.9137    2.6102    8.2239 C   0  0  0  0  0  0  0  0  0  0  0  0
    1.7492    2.2287    5.1197 C   0  0  0  0  0  0  0  0  0  0  0  0
   -0.5775    1.4836    8.9792 C   0  0  0  0  0  0  0  0  0  0  0  0
   -5.8284    3.1680    2.5168 H   0  0  0  0  0  0  0  0  0  0  0  0
   -6.5469    1.1623    3.5993 H   0  0  0  0  0  0  0  0  0  0  0  0
   -4.1578    4.9550    2.1911 H   0  0  0  0  0  0  0  0  0  0  0  0
   -6.0862   -0.7661    5.0766 H   0  0  0  0  0  0  0  0  0  0  0  0
   -1.9655    5.8528    2.5825 H   0  0  0  0  0  0  0  0  0  0  0  0
   -4.7002   -1.8527    6.7158 H   0  0  0  0  0  0  0  0  0  0  0  0
    0.3166    5.6413    3.4920 H   0  0  0  0  0  0  0  0  0  0  0  0
   -2.7766   -1.8259    8.2551 H   0  0  0  0  0  0  0  0  0  0  0  0
   -1.1669    0.5446    4.9572 H   0  0  0  0  0  0  0  0  0  0  0  0
   -2.0886    3.3993    6.6439 H   0  0  0  0  0  0  0  0  0  0  0  0
    2.0438    4.2362    4.4789 H   0  0  0  0  0  0  0  0  0  0  0  0
   -1.0328   -0.5628    9.3767 H   0  0  0  0  0  0  0  0  0  0  0  0
   -0.4559    3.5619    8.4502 H   0  0  0  0  0  0  0  0  0  0  0  0
    0.1659    1.5615    9.7591 H   0  0  0  0  0  0  0  0  0  0  0  0
    1.2516   -0.1595    5.6507 C   0  0  0  0  0  0  0  0  0  0  0  0
    2.5288   -0.3491    5.9218 N   0  0  0  0  0  0  0  0  0  0  0  0
    2.9012   -1.6046    6.2605 N   0  0  0  0  0  0  0  0  0  0  0  0
    2.0092   -2.6574    6.4070 C   0  0  0  0  0  0  0  0  0  0  0  0
    0.6854   -2.3137    6.1583 N   0  0  0  0  0  0  0  0  0  0  0  0
    0.3143   -1.0861    5.7335 N   0  0  0  0  0  0  0  0  0  0  0  0
    2.3567   -3.7731    6.7221 O   0  0  0  0  0  0  0  0  0  0  0  0
   -0.3713   -3.2382    6.2561 C   0  0  0  0  0  0  0  0  0  0  0  0
   -0.3261   -4.3454    7.0995 C   0  0  0  0  0  0  0  0  0  0  0  0
   -1.4056   -5.2086    7.1481 C   0  0  0  0  0  0  0  0  0  0  0  0
   -2.5313   -4.9830    6.3735 C   0  0  0  0  0  0  0  0  0  0  0  0
   -2.5801   -3.8712    5.5481 C   0  0  0  0  0  0  0  0  0  0  0  0
   -1.5132   -2.9990    5.4913 C   0  0  0  0  0  0  0  0  0  0  0  0
    4.2766   -1.7531    6.5319 C   0  0  0  0  0  0  0  0  0  0  0  0
    4.9572   -0.6553    7.0562 C   0  0  0  0  0  0  0  0  0  0  0  0
    6.3072   -0.7461    7.3270 C   0  0  0  0  0  0  0  0  0  0  0  0
    6.9910   -1.9253    7.0761 C   0  0  0  0  0  0  0  0  0  0  0  0
    6.3155   -3.0099    6.5424 C   0  0  0  0  0  0  0  0  0  0  0  0
    4.9634   -2.9328    6.2626 C   0  0  0  0  0  0  0  0  0  0  0  0
    4.4094    0.2540    7.2467 H   0  0  0  0  0  0  0  0  0  0  0  0
    6.8274    0.1052    7.7402 H   0  0  0  0  0  0  0  0  0  0  0  0
    8.0463   -1.9966    7.2924 H   0  0  0  0  0  0  0  0  0  0  0  0
    6.8456   -3.9267    6.3328 H   0  0  0  0  0  0  0  0  0  0  0  0
    4.4522   -3.7812    5.8406 H   0  0  0  0  0  0  0  0  0  0  0  0
    0.5399   -4.5366    7.7096 H   0  0  0  0  0  0  0  0  0  0  0  0
   -1.3646   -6.0656    7.8036 H   0  0  0  0  0  0  0  0  0  0  0  0
   -3.3652   -5.6676    6.4160 H   0  0  0  0  0  0  0  0  0  0  0  0
   -3.4534   -3.6834    4.9412 H   0  0  0  0  0  0  0  0  0  0  0  0
   -1.5405   -2.1271    4.8608 H   0  0  0  0  0  0  0  0  0  0  0  0
    2.7775    2.0545    5.3937 H   0  0  0  0  0  0  0  0  0  0  0  0
  1  2  1  0  0  0  0
  1  3  1  0  0  0  0
  1  4  2  0  0  0  0
  2  5  2  0  0  0  0
  2  7  1  0  0  0  0
  3  6  2  0  0  0  0
  3  8  1  0  0  0  0
  4 11  1  0  0  0  0
  4 12  1  0  0  0  0
  5 13  1  0  0  0  0
  5 15  1  0  0  0  0
  6 14  1  0  0  0  0
  6 16  1  0  0  0  0
  7  9  1  0  0  0  0
  7 19  2  0  0  0  0
  8 10  1  0  0  0  0
  8 20  2  0  0  0  0
  9 17  1  0  0  0  0
  9 21  2  0  0  0  0
 10 18  1  0  0  0  0
 10 22  2  0  0  0  0
 11 13  2  0  0  0  0
 11 27  1  0  0  0  0
 12 14  2  0  0  0  0
 12 28  1  0  0  0  0
 13 29  1  0  0  0  0
 14 30  1  0  0  0  0
 15 17  2  0  0  0  0
 15 31  1  0  0  0  0
 16 18  2  0  0  0  0
 16 32  1  0  0  0  0
 17 33  1  0  0  0  0
 18 34  1  0  0  0  0
 19 23  1  0  0  0  0
 19 35  1  0  0  0  0
 20 24  1  0  0  0  0
 20 36  1  0  0  0  0
 21 25  1  0  0  0  0
 21 37  1  0  0  0  0
 22 26  1  0  0  0  0
 22 38  1  0  0  0  0
 23 25  2  0  0  0  0
 23 41  1  0  0  0  0
 24 26  2  0  0  0  0
 24 39  1  0  0  0  0
 25 70  1  0  0  0  0
 26 40  1  0  0  0  0
 41 42  2  0  0  0  0
 42 43  1  0  0  0  0
 43 54  1  0  0  0  0
 43 44  1  0  0  0  0
 44 45  1  0  0  0  0
 44 47  2  0  0  0  0
 45 48  1  0  0  0  0
 45 46  1  0  0  0  0
 46 41  1  0  0  0  0
 48 49  2  0  0  0  0
 48 53  1  0  0  0  0
 49 50  1  0  0  0  0
 49 65  1  0  0  0  0
 50 51  2  0  0  0  0
 50 66  1  0  0  0  0
 51 52  1  0  0  0  0
 51 67  1  0  0  0  0
 52 53  2  0  0  0  0
 52 68  1  0  0  0  0
 53 69  1  0  0  0  0
 54 55  2  0  0  0  0
 54 59  1  0  0  0  0
 55 56  1  0  0  0  0
 55 60  1  0  0  0  0
 56 57  2  0  0  0  0
 56 61  1  0  0  0  0
 57 58  1  0  0  0  0
 57 62  1  0  0  0  0
 58 59  2  0  0  0  0
 58 63  1  0  0  0  0
 59 64  1  0  0  0  0
 71 72  1  0  0  0  0
 71 73  1  0  0  0  0
 71 74  2  0  0  0  0
 72 75  2  0  0  0  0
 72 77  1  0  0  0  0
 73 76  2  0  0  0  0
 73 78  1  0  0  0  0
 74 81  1  0  0  0  0
 74 82  1  0  0  0  0
 75 83  1  0  0  0  0
 75 85  1  0  0  0  0
 76 84  1  0  0  0  0
 76 86  1  0  0  0  0
 77 79  1  0  0  0  0
 77 89  2  0  0  0  0
 78 80  1  0  0  0  0
 78 90  2  0  0  0  0
 79 87  1  0  0  0  0
 79 91  2  0  0  0  0
 80 88  1  0  0  0  0
 80 92  2  0  0  0  0
 81 83  2  0  0  0  0
 81 97  1  0  0  0  0
 82 84  2  0  0  0  0
 82 98  1  0  0  0  0
 83 99  1  0  0  0  0
 84100  1  0  0  0  0
 85 87  2  0  0  0  0
 85101  1  0  0  0  0
 86 88  2  0  0  0  0
 86102  1  0  0  0  0
 87103  1  0  0  0  0
 88104  1  0  0  0  0
 89 93  1  0  0  0  0
 89105  1  0  0  0  0
 90 94  1  0  0  0  0
 90106  1  0  0  0  0
 91 95  1  0  0  0  0
 91107  1  0  0  0  0
 92 96  1  0  0  0  0
 92108  1  0  0  0  0
 93 95  2  0  0  0  0
 93111  1  0  0  0  0
 94 96  2  0  0  0  0
 94109  1  0  0  0  0
 95140  1  0  0  0  0
 96110  1  0  0  0  0
111112  2  0  0  0  0
112113  1  0  0  0  0
113124  1  0  0  0  0
113114  1  0  0  0  0
114115  1  0  0  0  0
114117  2  0  0  0  0
115118  1  0  0  0  0
115116  1  0  0  0  0
116111  1  0  0  0  0
118119  2  0  0  0  0
118123  1  0  0  0  0
119120  1  0  0  0  0
119135  1  0  0  0  0
120121  2  0  0  0  0
120136  1  0  0  0  0
121122  1  0  0  0  0
121137  1  0  0  0  0
122123  2  0  0  0  0
122138  1  0  0  0  0
123139  1  0  0  0  0
124125  2  0  0  0  0
124129  1  0  0  0  0
125126  1  0  0  0  0
125130  1  0  0  0  0
126127  2  0  0  0  0
126131  1  0  0  0  0
127128  1  0  0  0  0
127132  1  0  0  0  0
128129  2  0  0  0  0
128133  1  0  0  0  0
129134  1  0  0  0  0
M  END
