energy: -114.171178143186 gnorm: 0.000488397086 xtb: 6.6.1 (8d0f1dd)_energy: -114.171178143186 gnorm: 0.000488397086 xtb: 6.6.1 (8d0f1dd)
 OpenBabel11142415423D

140156  0  0  0  0  0  0  0  0999 V2000
   -3.5140    1.8895   -0.6401 C   0  0  0  0  0  0  0  0  0  0  0  0
   -2.7643    2.7628   -1.4978 C   0  0  0  0  0  0  0  0  0  0  0  0
   -2.9539    0.9991    0.3388 C   0  0  0  0  0  0  0  0  0  0  0  0
   -4.9217    1.8930   -0.7864 C   0  0  0  0  0  0  0  0  0  0  0  0
   -3.4205    3.8547   -2.0977 C   0  0  0  0  0  0  0  0  0  0  0  0
   -3.7153   -0.1156    0.7397 C   0  0  0  0  0  0  0  0  0  0  0  0
   -1.3802    2.5566   -1.8334 C   0  0  0  0  0  0  0  0  0  0  0  0
   -1.6811    1.1990    0.9845 C   0  0  0  0  0  0  0  0  0  0  0  0
   -0.6391    3.5999   -2.4406 C   0  0  0  0  0  0  0  0  0  0  0  0
   -1.0813    0.1210    1.6797 C   0  0  0  0  0  0  0  0  0  0  0  0
   -5.5584    2.9437   -1.4891 C   0  0  0  0  0  0  0  0  0  0  0  0
   -5.6923    0.8392   -0.2398 C   0  0  0  0  0  0  0  0  0  0  0  0
   -4.8316    3.9473   -2.0439 C   0  0  0  0  0  0  0  0  0  0  0  0
   -5.0891   -0.1901    0.4082 C   0  0  0  0  0  0  0  0  0  0  0  0
   -2.6664    4.8527   -2.7722 C   0  0  0  0  0  0  0  0  0  0  0  0
   -3.1102   -1.1557    1.4954 C   0  0  0  0  0  0  0  0  0  0  0  0
   -1.3179    4.7660   -2.8801 C   0  0  0  0  0  0  0  0  0  0  0  0
   -1.8163   -1.0767    1.8851 C   0  0  0  0  0  0  0  0  0  0  0  0
   -0.7233    1.3442   -1.5942 C   0  0  0  0  0  0  0  0  0  0  0  0
   -1.0207    2.4402    1.0072 C   0  0  0  0  0  0  0  0  0  0  0  0
    0.7496    3.4480   -2.6165 C   0  0  0  0  0  0  0  0  0  0  0  0
    0.2161    0.2687    2.1995 C   0  0  0  0  0  0  0  0  0  0  0  0
    0.6457    1.2354   -1.7130 C   0  0  0  0  0  0  0  0  0  0  0  0
    0.2302    2.5700    1.5527 C   0  0  0  0  0  0  0  0  0  0  0  0
    1.3960    2.3138   -2.2078 C   0  0  0  0  0  0  0  0  0  0  0  0
    0.8789    1.4638    2.1085 C   0  0  0  0  0  0  0  0  0  0  0  0
   -6.6375    2.9439   -1.5431 H   0  0  0  0  0  0  0  0  0  0  0  0
   -6.7616    0.8506   -0.3936 H   0  0  0  0  0  0  0  0  0  0  0  0
   -5.3143    4.7943   -2.5095 H   0  0  0  0  0  0  0  0  0  0  0  0
   -5.6550   -1.0481    0.7411 H   0  0  0  0  0  0  0  0  0  0  0  0
   -3.1993    5.7010   -3.1778 H   0  0  0  0  0  0  0  0  0  0  0  0
   -3.7050   -2.0266    1.7302 H   0  0  0  0  0  0  0  0  0  0  0  0
   -0.7442    5.5576   -3.3402 H   0  0  0  0  0  0  0  0  0  0  0  0
   -1.3429   -1.8940    2.4093 H   0  0  0  0  0  0  0  0  0  0  0  0
   -1.2766    0.4738   -1.2866 H   0  0  0  0  0  0  0  0  0  0  0  0
   -1.5164    3.3098    0.6036 H   0  0  0  0  0  0  0  0  0  0  0  0
    1.3023    4.2595   -3.0683 H   0  0  0  0  0  0  0  0  0  0  0  0
    0.6753   -0.5799    2.6889 H   0  0  0  0  0  0  0  0  0  0  0  0
    0.7206    3.5322    1.5526 H   0  0  0  0  0  0  0  0  0  0  0  0
    1.8818    1.5662    2.4974 H   0  0  0  0  0  0  0  0  0  0  0  0
    1.2924    0.0315   -1.1929 C   0  0  0  0  0  0  0  0  0  0  0  0
    2.5922    0.0765   -0.9784 N   0  0  0  0  0  0  0  0  0  0  0  0
    3.1522   -1.0097   -0.3994 N   0  0  0  0  0  0  0  0  0  0  0  0
    2.4245   -2.1110    0.0332 C   0  0  0  0  0  0  0  0  0  0  0  0
    1.0669   -2.0383   -0.2551 N   0  0  0  0  0  0  0  0  0  0  0  0
    0.5080   -0.9853   -0.8891 N   0  0  0  0  0  0  0  0  0  0  0  0
    2.9334   -3.0459    0.6087 O   0  0  0  0  0  0  0  0  0  0  0  0
    0.1477   -3.0454    0.0956 C   0  0  0  0  0  0  0  0  0  0  0  0
    0.3568   -3.9216    1.1577 C   0  0  0  0  0  0  0  0  0  0  0  0
   -0.6146   -4.8544    1.4726 C   0  0  0  0  0  0  0  0  0  0  0  0
   -1.7934   -4.9241    0.7496 C   0  0  0  0  0  0  0  0  0  0  0  0
   -2.0014   -4.0487   -0.3045 C   0  0  0  0  0  0  0  0  0  0  0  0
   -1.0414   -3.1144   -0.6321 C   0  0  0  0  0  0  0  0  0  0  0  0
    4.5343   -0.8888   -0.1534 C   0  0  0  0  0  0  0  0  0  0  0  0
    5.0472    0.3914    0.0531 C   0  0  0  0  0  0  0  0  0  0  0  0
    6.3967    0.5648    0.2820 C   0  0  0  0  0  0  0  0  0  0  0  0
    7.2466   -0.5300    0.3060 C   0  0  0  0  0  0  0  0  0  0  0  0
    6.7366   -1.7991    0.0896 C   0  0  0  0  0  0  0  0  0  0  0  0
    5.3869   -1.9885   -0.1456 C   0  0  0  0  0  0  0  0  0  0  0  0
    4.3706    1.2312    0.0324 H   0  0  0  0  0  0  0  0  0  0  0  0
    6.7871    1.5579    0.4478 H   0  0  0  0  0  0  0  0  0  0  0  0
    8.3016   -0.3933    0.4902 H   0  0  0  0  0  0  0  0  0  0  0  0
    7.3955   -2.6543    0.0965 H   0  0  0  0  0  0  0  0  0  0  0  0
    5.0034   -2.9794   -0.3194 H   0  0  0  0  0  0  0  0  0  0  0  0
    1.2645   -3.8770    1.7347 H   0  0  0  0  0  0  0  0  0  0  0  0
   -0.4478   -5.5281    2.2999 H   0  0  0  0  0  0  0  0  0  0  0  0
   -2.5453   -5.6552    1.0063 H   0  0  0  0  0  0  0  0  0  0  0  0
   -2.9163   -4.0944   -0.8761 H   0  0  0  0  0  0  0  0  0  0  0  0
   -1.1934   -2.4259   -1.4473 H   0  0  0  0  0  0  0  0  0  0  0  0
    2.4669    2.2140   -2.2854 H   0  0  0  0  0  0  0  0  0  0  0  0
   -3.5140    1.8895    5.3599 C   0  0  0  0  0  0  0  0  0  0  0  0
   -2.7643    2.7628    4.5022 C   0  0  0  0  0  0  0  0  0  0  0  0
   -2.9539    0.9991    6.3388 C   0  0  0  0  0  0  0  0  0  0  0  0
   -4.9217    1.8930    5.2136 C   0  0  0  0  0  0  0  0  0  0  0  0
   -3.4205    3.8547    3.9023 C   0  0  0  0  0  0  0  0  0  0  0  0
   -3.7153   -0.1156    6.7397 C   0  0  0  0  0  0  0  0  0  0  0  0
   -1.3802    2.5566    4.1666 C   0  0  0  0  0  0  0  0  0  0  0  0
   -1.6811    1.1990    6.9845 C   0  0  0  0  0  0  0  0  0  0  0  0
   -0.6391    3.5999    3.5594 C   0  0  0  0  0  0  0  0  0  0  0  0
   -1.0813    0.1210    7.6797 C   0  0  0  0  0  0  0  0  0  0  0  0
   -5.5584    2.9437    4.5109 C   0  0  0  0  0  0  0  0  0  0  0  0
   -5.6923    0.8392    5.7602 C   0  0  0  0  0  0  0  0  0  0  0  0
   -4.8316    3.9473    3.9561 C   0  0  0  0  0  0  0  0  0  0  0  0
   -5.0891   -0.1901    6.4082 C   0  0  0  0  0  0  0  0  0  0  0  0
   -2.6664    4.8527    3.2278 C   0  0  0  0  0  0  0  0  0  0  0  0
   -3.1102   -1.1557    7.4954 C   0  0  0  0  0  0  0  0  0  0  0  0
   -1.3179    4.7660    3.1199 C   0  0  0  0  0  0  0  0  0  0  0  0
   -1.8163   -1.0767    7.8851 C   0  0  0  0  0  0  0  0  0  0  0  0
   -0.7233    1.3442    4.4058 C   0  0  0  0  0  0  0  0  0  0  0  0
   -1.0207    2.4402    7.0072 C   0  0  0  0  0  0  0  0  0  0  0  0
    0.7496    3.4480    3.3835 C   0  0  0  0  0  0  0  0  0  0  0  0
    0.2161    0.2687    8.1995 C   0  0  0  0  0  0  0  0  0  0  0  0
    0.6457    1.2354    4.2870 C   0  0  0  0  0  0  0  0  0  0  0  0
    0.2302    2.5700    7.5527 C   0  0  0  0  0  0  0  0  0  0  0  0
    1.3960    2.3138    3.7922 C   0  0  0  0  0  0  0  0  0  0  0  0
    0.8789    1.4638    8.1085 C   0  0  0  0  0  0  0  0  0  0  0  0
   -6.6375    2.9439    4.4569 H   0  0  0  0  0  0  0  0  0  0  0  0
   -6.7616    0.8506    5.6064 H   0  0  0  0  0  0  0  0  0  0  0  0
   -5.3143    4.7943    3.4905 H   0  0  0  0  0  0  0  0  0  0  0  0
   -5.6550   -1.0481    6.7411 H   0  0  0  0  0  0  0  0  0  0  0  0
   -3.1993    5.7010    2.8222 H   0  0  0  0  0  0  0  0  0  0  0  0
   -3.7050   -2.0266    7.7302 H   0  0  0  0  0  0  0  0  0  0  0  0
   -0.7442    5.5576    2.6598 H   0  0  0  0  0  0  0  0  0  0  0  0
   -1.3429   -1.8940    8.4093 H   0  0  0  0  0  0  0  0  0  0  0  0
   -1.2766    0.4738    4.7134 H   0  0  0  0  0  0  0  0  0  0  0  0
   -1.5164    3.3098    6.6036 H   0  0  0  0  0  0  0  0  0  0  0  0
    1.3023    4.2595    2.9317 H   0  0  0  0  0  0  0  0  0  0  0  0
    0.6753   -0.5799    8.6889 H   0  0  0  0  0  0  0  0  0  0  0  0
    0.7206    3.5322    7.5526 H   0  0  0  0  0  0  0  0  0  0  0  0
    1.8818    1.5662    8.4974 H   0  0  0  0  0  0  0  0  0  0  0  0
    1.2924    0.0315    4.8071 C   0  0  0  0  0  0  0  0  0  0  0  0
    2.5922    0.0765    5.0216 N   0  0  0  0  0  0  0  0  0  0  0  0
    3.1522   -1.0097    5.6006 N   0  0  0  0  0  0  0  0  0  0  0  0
    2.4245   -2.1110    6.0332 C   0  0  0  0  0  0  0  0  0  0  0  0
    1.0669   -2.0383    5.7449 N   0  0  0  0  0  0  0  0  0  0  0  0
    0.5080   -0.9853    5.1109 N   0  0  0  0  0  0  0  0  0  0  0  0
    2.9334   -3.0459    6.6087 O   0  0  0  0  0  0  0  0  0  0  0  0
    0.1477   -3.0454    6.0956 C   0  0  0  0  0  0  0  0  0  0  0  0
    0.3568   -3.9216    7.1577 C   0  0  0  0  0  0  0  0  0  0  0  0
   -0.6146   -4.8544    7.4726 C   0  0  0  0  0  0  0  0  0  0  0  0
   -1.7934   -4.9241    6.7496 C   0  0  0  0  0  0  0  0  0  0  0  0
   -2.0014   -4.0487    5.6955 C   0  0  0  0  0  0  0  0  0  0  0  0
   -1.0414   -3.1144    5.3679 C   0  0  0  0  0  0  0  0  0  0  0  0
    4.5343   -0.8888    5.8466 C   0  0  0  0  0  0  0  0  0  0  0  0
    5.0472    0.3914    6.0531 C   0  0  0  0  0  0  0  0  0  0  0  0
    6.3967    0.5648    6.2820 C   0  0  0  0  0  0  0  0  0  0  0  0
    7.2466   -0.5300    6.3060 C   0  0  0  0  0  0  0  0  0  0  0  0
    6.7366   -1.7991    6.0896 C   0  0  0  0  0  0  0  0  0  0  0  0
    5.3869   -1.9885    5.8544 C   0  0  0  0  0  0  0  0  0  0  0  0
    4.3706    1.2312    6.0324 H   0  0  0  0  0  0  0  0  0  0  0  0
    6.7871    1.5579    6.4478 H   0  0  0  0  0  0  0  0  0  0  0  0
    8.3016   -0.3933    6.4902 H   0  0  0  0  0  0  0  0  0  0  0  0
    7.3955   -2.6543    6.0965 H   0  0  0  0  0  0  0  0  0  0  0  0
    5.0034   -2.9794    5.6806 H   0  0  0  0  0  0  0  0  0  0  0  0
    1.2645   -3.8770    7.7347 H   0  0  0  0  0  0  0  0  0  0  0  0
   -0.4478   -5.5281    8.2999 H   0  0  0  0  0  0  0  0  0  0  0  0
   -2.5453   -5.6552    7.0063 H   0  0  0  0  0  0  0  0  0  0  0  0
   -2.9163   -4.0944    5.1239 H   0  0  0  0  0  0  0  0  0  0  0  0
   -1.1934   -2.4259    4.5527 H   0  0  0  0  0  0  0  0  0  0  0  0
    2.4669    2.2140    3.7146 H   0  0  0  0  0  0  0  0  0  0  0  0
  1  2  1  0  0  0  0
  1  3  1  0  0  0  0
  1  4  2  0  0  0  0
  2  5  2  0  0  0  0
  2  7  1  0  0  0  0
  3  6  2  0  0  0  0
  3  8  1  0  0  0  0
  4 11  1  0  0  0  0
  4 12  1  0  0  0  0
  5 13  1  0  0  0  0
  5 15  1  0  0  0  0
  6 14  1  0  0  0  0
  6 16  1  0  0  0  0
  7  9  1  0  0  0  0
  7 19  2  0  0  0  0
  8 10  1  0  0  0  0
  8 20  2  0  0  0  0
  9 17  1  0  0  0  0
  9 21  2  0  0  0  0
 10 18  1  0  0  0  0
 10 22  2  0  0  0  0
 11 13  2  0  0  0  0
 11 27  1  0  0  0  0
 12 14  2  0  0  0  0
 12 28  1  0  0  0  0
 13 29  1  0  0  0  0
 14 30  1  0  0  0  0
 15 17  2  0  0  0  0
 15 31  1  0  0  0  0
 16 18  2  0  0  0  0
 16 32  1  0  0  0  0
 17 33  1  0  0  0  0
 18 34  1  0  0  0  0
 19 23  1  0  0  0  0
 19 35  1  0  0  0  0
 20 24  1  0  0  0  0
 20 36  1  0  0  0  0
 21 25  1  0  0  0  0
 21 37  1  0  0  0  0
 22 26  1  0  0  0  0
 22 38  1  0  0  0  0
 23 25  2  0  0  0  0
 23 41  1  0  0  0  0
 24 26  2  0  0  0  0
 24 39  1  0  0  0  0
 25 70  1  0  0  0  0
 26 40  1  0  0  0  0
 41 42  2  0  0  0  0
 42 43  1  0  0  0  0
 43 54  1  0  0  0  0
 43 44  1  0  0  0  0
 44 45  1  0  0  0  0
 44 47  2  0  0  0  0
 45 48  1  0  0  0  0
 45 46  1  0  0  0  0
 46 41  1  0  0  0  0
 48 49  2  0  0  0  0
 48 53  1  0  0  0  0
 49 50  1  0  0  0  0
 49 65  1  0  0  0  0
 50 51  2  0  0  0  0
 50 66  1  0  0  0  0
 51 52  1  0  0  0  0
 51 67  1  0  0  0  0
 52 53  2  0  0  0  0
 52 68  1  0  0  0  0
 53 69  1  0  0  0  0
 54 55  2  0  0  0  0
 54 59  1  0  0  0  0
 55 56  1  0  0  0  0
 55 60  1  0  0  0  0
 56 57  2  0  0  0  0
 56 61  1  0  0  0  0
 57 58  1  0  0  0  0
 57 62  1  0  0  0  0
 58 59  2  0  0  0  0
 58 63  1  0  0  0  0
 59 64  1  0  0  0  0
 71 72  1  0  0  0  0
 71 73  1  0  0  0  0
 71 74  2  0  0  0  0
 72 75  2  0  0  0  0
 72 77  1  0  0  0  0
 73 76  2  0  0  0  0
 73 78  1  0  0  0  0
 74 81  1  0  0  0  0
 74 82  1  0  0  0  0
 75 83  1  0  0  0  0
 75 85  1  0  0  0  0
 76 84  1  0  0  0  0
 76 86  1  0  0  0  0
 77 79  1  0  0  0  0
 77 89  2  0  0  0  0
 78 80  1  0  0  0  0
 78 90  2  0  0  0  0
 79 87  1  0  0  0  0
 79 91  2  0  0  0  0
 80 88  1  0  0  0  0
 80 92  2  0  0  0  0
 81 83  2  0  0  0  0
 81 97  1  0  0  0  0
 82 84  2  0  0  0  0
 82 98  1  0  0  0  0
 83 99  1  0  0  0  0
 84100  1  0  0  0  0
 85 87  2  0  0  0  0
 85101  1  0  0  0  0
 86 88  2  0  0  0  0
 86102  1  0  0  0  0
 87103  1  0  0  0  0
 88104  1  0  0  0  0
 89 93  1  0  0  0  0
 89105  1  0  0  0  0
 90 94  1  0  0  0  0
 90106  1  0  0  0  0
 91 95  1  0  0  0  0
 91107  1  0  0  0  0
 92 96  1  0  0  0  0
 92108  1  0  0  0  0
 93 95  2  0  0  0  0
 93111  1  0  0  0  0
 94 96  2  0  0  0  0
 94109  1  0  0  0  0
 95140  1  0  0  0  0
 96110  1  0  0  0  0
111112  2  0  0  0  0
112113  1  0  0  0  0
113124  1  0  0  0  0
113114  1  0  0  0  0
114115  1  0  0  0  0
114117  2  0  0  0  0
115118  1  0  0  0  0
115116  1  0  0  0  0
116111  1  0  0  0  0
118119  2  0  0  0  0
118123  1  0  0  0  0
119120  1  0  0  0  0
119135  1  0  0  0  0
120121  2  0  0  0  0
120136  1  0  0  0  0
121122  1  0  0  0  0
121137  1  0  0  0  0
122123  2  0  0  0  0
122138  1  0  0  0  0
123139  1  0  0  0  0
124125  2  0  0  0  0
124129  1  0  0  0  0
125126  1  0  0  0  0
125130  1  0  0  0  0
126127  2  0  0  0  0
126131  1  0  0  0  0
127128  1  0  0  0  0
127132  1  0  0  0  0
128129  2  0  0  0  0
128133  1  0  0  0  0
129134  1  0  0  0  0
M  END
