 energy: -213.922623506858 gnorm: 0.000134912360 xtb: 6.7.1 (edcfbbe)
          03042512173D

116124  0     0  0            999 V2000
   -1.9741    2.5760   -1.0216 C   0  0  0  0  0  0  0  0  0  0  0  0
   -1.9587    1.4940   -0.1689 C   0  0  0  0  0  0  0  0  0  0  0  0
   -1.3184    1.5964    1.0880 C   0  0  0  0  0  0  0  0  0  0  0  0
   -0.4400    2.7098    1.3062 C   0  0  0  0  0  0  0  0  0  0  0  0
   -0.4958    3.8105    0.4237 C   0  0  0  0  0  0  0  0  0  0  0  0
   -1.2940    3.7626   -0.6945 C   0  0  0  0  0  0  0  0  0  0  0  0
   -1.4116    0.6438    2.1499 C   0  0  0  0  0  0  0  0  0  0  0  0
   -0.3474    0.6202    3.0638 C   0  0  0  0  0  0  0  0  0  0  0  0
    0.6010    1.6867    3.0796 C   0  0  0  0  0  0  0  0  0  0  0  0
    0.4676    2.7418    2.2824 N   0  0  0  0  0  0  0  0  0  0  0  0
   -2.4738   -0.2869    2.3719 C   0  0  0  0  0  0  0  0  0  0  0  0
   -2.1751   -1.4091    3.2089 C   0  0  0  0  0  0  0  0  0  0  0  0
   -1.0539   -1.5068    3.9308 N   0  0  0  0  0  0  0  0  0  0  0  0
   -0.2112   -0.4773    3.9623 C   0  0  0  0  0  0  0  0  0  0  0  0
    0.8877   -0.4961    4.8435 C   0  0  0  0  0  0  0  0  0  0  0  0
    1.8028    0.5486    4.8557 C   0  0  0  0  0  0  0  0  0  0  0  0
    1.6649    1.6374    4.0041 C   0  0  0  0  0  0  0  0  0  0  0  0
   -3.7953   -0.1456    1.8694 C   0  0  0  0  0  0  0  0  0  0  0  0
   -4.6800   -1.1969    2.0017 C   0  0  0  0  0  0  0  0  0  0  0  0
   -4.3202   -2.3679    2.6903 C   0  0  0  0  0  0  0  0  0  0  0  0
   -3.1024   -2.4680    3.3150 C   0  0  0  0  0  0  0  0  0  0  0  0
   -4.1284    1.0550    1.3479 O   0  0  0  0  0  0  0  0  0  0  0  0
   -2.5625    0.3338   -0.6040 O   0  0  0  0  0  0  0  0  0  0  0  0
   -1.3447    4.9482   -1.5883 C   0  0  0  0  0  0  0  0  0  0  0  0
   -5.3352   -3.4505    2.7567 C   0  0  0  0  0  0  0  0  0  0  0  0
    0.1180    4.6729    0.6288 H   0  0  0  0  0  0  0  0  0  0  0  0
   -2.4974    2.4957   -1.9607 H   0  0  0  0  0  0  0  0  0  0  0  0
    2.3637    2.4563    4.0297 H   0  0  0  0  0  0  0  0  0  0  0  0
    1.0207   -1.3323    5.5122 H   0  0  0  0  0  0  0  0  0  0  0  0
   -2.8427   -3.3237    3.9141 H   0  0  0  0  0  0  0  0  0  0  0  0
   -5.6776   -1.1555    1.5960 H   0  0  0  0  0  0  0  0  0  0  0  0
   -0.7232    5.9645   -1.4072 O   0  0  0  0  0  0  0  0  0  0  0  0
   -2.1714    4.7692   -2.6297 O   0  0  0  0  0  0  0  0  0  0  0  0
   -2.2738    5.8622   -3.5299 C   0  0  0  0  0  0  0  0  0  0  0  0
    2.9408    0.4473    5.8136 C   0  0  0  0  0  0  0  0  0  0  0  0
    3.0354   -0.4213    6.6472 O   0  0  0  0  0  0  0  0  0  0  0  0
    3.8443    1.4057    5.6169 O   0  0  0  0  0  0  0  0  0  0  0  0
    5.0006    1.4173    6.4431 C   0  0  0  0  0  0  0  0  0  0  0  0
   -6.4179   -3.3964    2.2255 O   0  0  0  0  0  0  0  0  0  0  0  0
   -4.9188   -4.5030    3.4706 O   0  0  0  0  0  0  0  0  0  0  0  0
   -5.8371   -5.5802    3.5789 C   0  0  0  0  0  0  0  0  0  0  0  0
   -5.3937    1.2036    0.7458 C   0  0  0  0  0  0  0  0  0  0  0  0
   -1.7082   -0.7816   -0.7485 C   0  0  0  0  0  0  0  0  0  0  0  0
   -5.3458   -6.3389    4.1824 H   0  0  0  0  0  0  0  0  0  0  0  0
   -6.0796   -5.9736    2.5895 H   0  0  0  0  0  0  0  0  0  0  0  0
   -6.7598   -5.2459    4.0578 H   0  0  0  0  0  0  0  0  0  0  0  0
    5.8757    1.2776    5.8068 H   0  0  0  0  0  0  0  0  0  0  0  0
    4.9432    0.6193    7.1852 H   0  0  0  0  0  0  0  0  0  0  0  0
    5.0546    2.3883    6.9349 H   0  0  0  0  0  0  0  0  0  0  0  0
   -2.3459   -1.6070   -1.0598 H   0  0  0  0  0  0  0  0  0  0  0  0
   -1.2044   -1.0501    0.1846 H   0  0  0  0  0  0  0  0  0  0  0  0
   -0.9527   -0.5931   -1.5194 H   0  0  0  0  0  0  0  0  0  0  0  0
   -5.4122    2.2157    0.3443 H   0  0  0  0  0  0  0  0  0  0  0  0
   -6.2007    1.0866    1.4753 H   0  0  0  0  0  0  0  0  0  0  0  0
   -5.5257    0.4900   -0.0715 H   0  0  0  0  0  0  0  0  0  0  0  0
   -2.9960    5.5669   -4.2867 H   0  0  0  0  0  0  0  0  0  0  0  0
   -1.3034    6.0703   -3.9854 H   0  0  0  0  0  0  0  0  0  0  0  0
   -2.6113    6.7572   -3.0033 H   0  0  0  0  0  0  0  0  0  0  0  0
   -2.3212    1.2089    5.7321 C   0  0  0  0  0  0  0  0  0  0  0  0
   -2.0094    0.3114    6.7363 C   0  0  0  0  0  0  0  0  0  0  0  0
   -0.9485    0.6041    7.6272 C   0  0  0  0  0  0  0  0  0  0  0  0
   -0.0498    1.6682    7.2822 C   0  0  0  0  0  0  0  0  0  0  0  0
   -0.4111    2.5714    6.2624 C   0  0  0  0  0  0  0  0  0  0  0  0
   -1.5573    2.3693    5.5314 C   0  0  0  0  0  0  0  0  0  0  0  0
   -0.6586   -0.0813    8.8492 C   0  0  0  0  0  0  0  0  0  0  0  0
    0.6597   -0.0035    9.3214 C   0  0  0  0  0  0  0  0  0  0  0  0
    1.5443    0.9753    8.7836 C   0  0  0  0  0  0  0  0  0  0  0  0
    1.1345    1.8511    7.8705 N   0  0  0  0  0  0  0  0  0  0  0  0
   -1.5758   -0.8286    9.6501 C   0  0  0  0  0  0  0  0  0  0  0  0
   -1.0118   -1.7707   10.5705 C   0  0  0  0  0  0  0  0  0  0  0  0
    0.2903   -1.8155   10.8606 N   0  0  0  0  0  0  0  0  0  0  0  0
    1.0996   -0.8934   10.3465 C   0  0  0  0  0  0  0  0  0  0  0  0
    2.4435   -0.8224   10.7657 C   0  0  0  0  0  0  0  0  0  0  0  0
    3.2962    0.1409   10.2402 C   0  0  0  0  0  0  0  0  0  0  0  0
    2.8563    1.0529    9.2893 C   0  0  0  0  0  0  0  0  0  0  0  0
   -2.9845   -0.6431    9.6363 C   0  0  0  0  0  0  0  0  0  0  0  0
   -3.7853   -1.5506   10.2984 C   0  0  0  0  0  0  0  0  0  0  0  0
   -3.2223   -2.5939   11.0559 C   0  0  0  0  0  0  0  0  0  0  0  0
   -1.8632   -2.6846   11.2301 C   0  0  0  0  0  0  0  0  0  0  0  0
   -3.4346    0.4752    9.0279 O   0  0  0  0  0  0  0  0  0  0  0  0
   -2.7825   -0.8162    6.8026 O   0  0  0  0  0  0  0  0  0  0  0  0
   -1.9159    3.3852    4.5080 C   0  0  0  0  0  0  0  0  0  0  0  0
   -4.1669   -3.5381   11.7055 C   0  0  0  0  0  0  0  0  0  0  0  0
    0.2324    3.4106    6.0532 H   0  0  0  0  0  0  0  0  0  0  0  0
   -3.1633    0.9985    5.0918 H   0  0  0  0  0  0  0  0  0  0  0  0
    3.5068    1.8271    8.9199 H   0  0  0  0  0  0  0  0  0  0  0  0
    2.8040   -1.5171   11.5076 H   0  0  0  0  0  0  0  0  0  0  0  0
   -1.4218   -3.4169   11.8841 H   0  0  0  0  0  0  0  0  0  0  0  0
   -4.8610   -1.4866   10.2730 H   0  0  0  0  0  0  0  0  0  0  0  0
   -1.3743    4.4570    4.4122 O   0  0  0  0  0  0  0  0  0  0  0  0
   -2.9122    2.9810    3.7075 O   0  0  0  0  0  0  0  0  0  0  0  0
   -3.3516    3.9039    2.7196 C   0  0  0  0  0  0  0  0  0  0  0  0
    4.7009    0.1652   10.7303 C   0  0  0  0  0  0  0  0  0  0  0  0
    5.1130   -0.4896   11.6539 O   0  0  0  0  0  0  0  0  0  0  0  0
    5.4757    0.9964   10.0165 O   0  0  0  0  0  0  0  0  0  0  0  0
    6.8352    1.0689   10.4190 C   0  0  0  0  0  0  0  0  0  0  0  0
   -5.3686   -3.4676   11.6097 O   0  0  0  0  0  0  0  0  0  0  0  0
   -3.5417   -4.4887   12.4097 O   0  0  0  0  0  0  0  0  0  0  0  0
   -4.3804   -5.4307   13.0605 C   0  0  0  0  0  0  0  0  0  0  0  0
   -4.8236    0.6751    8.9158 C   0  0  0  0  0  0  0  0  0  0  0  0
   -2.1282   -2.0753    6.8312 C   0  0  0  0  0  0  0  0  0  0  0  0
   -3.7182   -6.1337   13.5589 H   0  0  0  0  0  0  0  0  0  0  0  0
   -5.0104   -5.9455   12.3320 H   0  0  0  0  0  0  0  0  0  0  0  0
   -5.0239   -4.9288   13.7862 H   0  0  0  0  0  0  0  0  0  0  0  0
    7.3218    1.7508    9.7264 H   0  0  0  0  0  0  0  0  0  0  0  0
    7.2971    0.0805   10.3747 H   0  0  0  0  0  0  0  0  0  0  0  0
    6.9085    1.4428   11.4423 H   0  0  0  0  0  0  0  0  0  0  0  0
   -2.9299   -2.8105    6.8802 H   0  0  0  0  0  0  0  0  0  0  0  0
   -1.4771   -2.2001    7.6985 H   0  0  0  0  0  0  0  0  0  0  0  0
   -1.5493   -2.2180    5.9133 H   0  0  0  0  0  0  0  0  0  0  0  0
   -4.9381    1.6142    8.3772 H   0  0  0  0  0  0  0  0  0  0  0  0
   -5.2975    0.7568    9.8987 H   0  0  0  0  0  0  0  0  0  0  0  0
   -5.2917   -0.1309    8.3444 H   0  0  0  0  0  0  0  0  0  0  0  0
   -3.6225    3.3197    1.8439 H   0  0  0  0  0  0  0  0  0  0  0  0
   -2.5515    4.6079    2.4828 H   0  0  0  0  0  0  0  0  0  0  0  0
   -4.2174    4.4512    3.0978 H   0  0  0  0  0  0  0  0  0  0  0  0
  1  6  2  0  0  0  0
  1  2  1  0  0  0  0
  2  3  2  0  0  0  0
  3  7  1  0  0  0  0
  4  3  1  0  0  0  0
  4 10  1  0  0  0  0
  5  4  2  0  0  0  0
  6  5  1  0  0  0  0
  7 11  2  0  0  0  0
  7  8  1  0  0  0  0
  8 14  1  0  0  0  0
  9  8  2  0  0  0  0
  9 17  1  0  0  0  0
 10  9  1  0  0  0  0
 11 12  1  0  0  0  0
 12 21  1  0  0  0  0
 12 13  2  0  0  0  0
 14 13  1  0  0  0  0
 14 15  2  0  0  0  0
 15 29  1  0  0  0  0
 16 15  1  0  0  0  0
 16 35  1  0  0  0  0
 17 16  2  0  0  0  0
 18 11  1  0  0  0  0
 18 19  2  0  0  0  0
 19 20  1  0  0  0  0
 20 21  2  0  0  0  0
 20 25  1  0  0  0  0
 21 30  1  0  0  0  0
 22 18  1  0  0  0  0
 23  2  1  0  0  0  0
 24  6  1  0  0  0  0
 25 40  1  0  0  0  0
 26  5  1  0  0  0  0
 27  1  1  0  0  0  0
 28 17  1  0  0  0  0
 31 19  1  0  0  0  0
 32 24  2  0  0  0  0
 33 34  1  0  0  0  0
 33 24  1  0  0  0  0
 34 57  1  0  0  0  0
 34 58  1  0  0  0  0
 35 36  2  0  0  0  0
 37 35  1  0  0  0  0
 38 37  1  0  0  0  0
 39 25  2  0  0  0  0
 41 44  1  0  0  0  0
 41 40  1  0  0  0  0
 42 54  1  0  0  0  0
 42 22  1  0  0  0  0
 43 23  1  0  0  0  0
 45 41  1  0  0  0  0
 46 41  1  0  0  0  0
 47 38  1  0  0  0  0
 48 38  1  0  0  0  0
 49 38  1  0  0  0  0
 50 43  1  0  0  0  0
 51 43  1  0  0  0  0
 52 43  1  0  0  0  0
 53 42  1  0  0  0  0
 55 42  1  0  0  0  0
 56 34  1  0  0  0  0
 59 64  2  0  0  0  0
 59 60  1  0  0  0  0
 60 61  2  0  0  0  0
 61 65  1  0  0  0  0
 62 61  1  0  0  0  0
 62 68  1  0  0  0  0
 63 62  2  0  0  0  0
 64 63  1  0  0  0  0
 65 69  2  0  0  0  0
 65 66  1  0  0  0  0
 66 72  1  0  0  0  0
 67 66  2  0  0  0  0
 67 75  1  0  0  0  0
 68 67  1  0  0  0  0
 69 70  1  0  0  0  0
 70 79  1  0  0  0  0
 70 71  2  0  0  0  0
 72 71  1  0  0  0  0
 72 73  2  0  0  0  0
 73 87  1  0  0  0  0
 74 73  1  0  0  0  0
 74 93  1  0  0  0  0
 75 74  2  0  0  0  0
 76 69  1  0  0  0  0
 76 77  2  0  0  0  0
 77 78  1  0  0  0  0
 78 79  2  0  0  0  0
 78 83  1  0  0  0  0
 79 88  1  0  0  0  0
 80 76  1  0  0  0  0
 81 60  1  0  0  0  0
 82 64  1  0  0  0  0
 83 98  1  0  0  0  0
 84 63  1  0  0  0  0
 85 59  1  0  0  0  0
 86 75  1  0  0  0  0
 89 77  1  0  0  0  0
 90 82  2  0  0  0  0
 91 92  1  0  0  0  0
 91 82  1  0  0  0  0
 92115  1  0  0  0  0
 92116  1  0  0  0  0
 93 94  2  0  0  0  0
 95 93  1  0  0  0  0
 96 95  1  0  0  0  0
 97 83  2  0  0  0  0
 99102  1  0  0  0  0
 99 98  1  0  0  0  0
100112  1  0  0  0  0
100 80  1  0  0  0  0
101 81  1  0  0  0  0
103 99  1  0  0  0  0
104 99  1  0  0  0  0
105 96  1  0  0  0  0
106 96  1  0  0  0  0
107 96  1  0  0  0  0
108101  1  0  0  0  0
109101  1  0  0  0  0
110101  1  0  0  0  0
111100  1  0  0  0  0
113100  1  0  0  0  0
114 92  1  0  0  0  0
M  END
