 energy: -401.220986189088 gnorm: 0.000563572319 xtb: 6.7.1 (edcfbbe)
          03112510553D

202224  0     0  0            999 V2000
   -0.6556    4.7811    0.9757 C   0  0  0  0  0  0  0  0  0  0  0  0
   -0.2915    3.6689    1.7231 C   0  0  0  0  0  0  0  0  0  0  0  0
    1.0820    3.4072    1.9511 C   0  0  0  0  0  0  0  0  0  0  0  0
    2.0132    4.4620    1.6210 C   0  0  0  0  0  0  0  0  0  0  0  0
    1.6026    5.5692    0.8428 C   0  0  0  0  0  0  0  0  0  0  0  0
    0.2792    5.7122    0.5083 C   0  0  0  0  0  0  0  0  0  0  0  0
    1.6378    2.2133    2.5273 C   0  0  0  0  0  0  0  0  0  0  0  0
    2.9156    2.3673    3.1098 C   0  0  0  0  0  0  0  0  0  0  0  0
    3.6836    3.5485    2.8855 C   0  0  0  0  0  0  0  0  0  0  0  0
    3.2645    4.5006    2.0596 N   0  0  0  0  0  0  0  0  0  0  0  0
    1.1484    0.8638    2.4359 C   0  0  0  0  0  0  0  0  0  0  0  0
    1.8774   -0.1372    3.1810 C   0  0  0  0  0  0  0  0  0  0  0  0
    2.9244    0.1188    3.9552 N   0  0  0  0  0  0  0  0  0  0  0  0
    3.4971    1.3174    3.8746 C   0  0  0  0  0  0  0  0  0  0  0  0
    4.7492    1.5048    4.4948 C   0  0  0  0  0  0  0  0  0  0  0  0
    5.4717    2.6715    4.2835 C   0  0  0  0  0  0  0  0  0  0  0  0
    4.9602    3.6716    3.4675 C   0  0  0  0  0  0  0  0  0  0  0  0
    0.1767    0.3863    1.5118 C   0  0  0  0  0  0  0  0  0  0  0  0
    0.1061   -0.9846    1.2409 C   0  0  0  0  0  0  0  0  0  0  0  0
    0.8370   -1.9382    1.9642 C   0  0  0  0  0  0  0  0  0  0  0  0
    1.6297   -1.5217    3.0006 C   0  0  0  0  0  0  0  0  0  0  0  0
   -1.2520    2.9054    2.2598 O   0  0  0  0  0  0  0  0  0  0  0  0
   -0.6321    1.1503    0.7782 O   0  0  0  0  0  0  0  0  0  0  0  0
   -0.1605    6.8915   -0.2871 C   0  0  0  0  0  0  0  0  0  0  0  0
    0.7655   -3.3827    1.6215 C   0  0  0  0  0  0  0  0  0  0  0  0
    6.8349    2.8747    4.8598 C   0  0  0  0  0  0  0  0  0  0  0  0
   -2.0958   -1.2480    2.6640 C   0  0  0  0  0  0  0  0  0  0  0  0
   -2.8022   -0.2885    1.9352 C   0  0  0  0  0  0  0  0  0  0  0  0
   -3.7530   -0.6915    0.9582 C   0  0  0  0  0  0  0  0  0  0  0  0
   -3.8304   -2.1057    0.6853 C   0  0  0  0  0  0  0  0  0  0  0  0
   -3.0441   -3.0393    1.3971 C   0  0  0  0  0  0  0  0  0  0  0  0
   -2.2438   -2.6200    2.4261 C   0  0  0  0  0  0  0  0  0  0  0  0
   -4.7605    0.1411    0.3557 C   0  0  0  0  0  0  0  0  0  0  0  0
   -5.8008   -0.5376   -0.3175 C   0  0  0  0  0  0  0  0  0  0  0  0
   -5.6761   -1.9160   -0.6488 C   0  0  0  0  0  0  0  0  0  0  0  0
   -4.6827   -2.6576   -0.1741 N   0  0  0  0  0  0  0  0  0  0  0  0
   -4.9342    1.5626    0.4810 C   0  0  0  0  0  0  0  0  0  0  0  0
   -6.2907    2.0492    0.3621 C   0  0  0  0  0  0  0  0  0  0  0  0
   -7.2714    1.3520   -0.1953 N   0  0  0  0  0  0  0  0  0  0  0  0
   -7.0179    0.1280   -0.6480 C   0  0  0  0  0  0  0  0  0  0  0  0
   -8.0081   -0.5488   -1.3834 C   0  0  0  0  0  0  0  0  0  0  0  0
   -7.8110   -1.8601   -1.7999 C   0  0  0  0  0  0  0  0  0  0  0  0
   -6.6578   -2.5410   -1.4453 C   0  0  0  0  0  0  0  0  0  0  0  0
   -3.9209    2.5427    0.6409 C   0  0  0  0  0  0  0  0  0  0  0  0
   -4.2831    3.8275    1.0338 C   0  0  0  0  0  0  0  0  0  0  0  0
   -5.6180    4.2342    1.1287 C   0  0  0  0  0  0  0  0  0  0  0  0
   -6.6148    3.3667    0.7553 C   0  0  0  0  0  0  0  0  0  0  0  0
   -2.5913    0.9763    2.2850 O   0  0  0  0  0  0  0  0  0  0  0  0
   -2.6417    2.2860    0.3394 O   0  0  0  0  0  0  0  0  0  0  0  0
   -1.5406   -3.5700    3.3204 C   0  0  0  0  0  0  0  0  0  0  0  0
   -5.9856    5.6235    1.5229 C   0  0  0  0  0  0  0  0  0  0  0  0
   -8.8920   -2.5218   -2.5830 C   0  0  0  0  0  0  0  0  0  0  0  0
   -1.7698    1.8419    1.4225 B   0  0  0  0  0  0  0  0  0  0  0  0
    7.5252    3.8285    4.6136 O   0  0  0  0  0  0  0  0  0  0  0  0
    7.2121    1.8631    5.6472 O   0  0  0  0  0  0  0  0  0  0  0  0
    8.5315    1.9441    6.1797 C   0  0  0  0  0  0  0  0  0  0  0  0
    0.0515   -3.5999    0.5124 O   0  0  0  0  0  0  0  0  0  0  0  0
   -0.0608   -4.9495    0.0823 C   0  0  0  0  0  0  0  0  0  0  0  0
    1.3098   -4.2622    2.2438 O   0  0  0  0  0  0  0  0  0  0  0  0
   -0.9217   -3.2354    4.3012 O   0  0  0  0  0  0  0  0  0  0  0  0
   -1.6910   -4.8354    2.9332 O   0  0  0  0  0  0  0  0  0  0  0  0
   -1.0349   -5.8042    3.7411 C   0  0  0  0  0  0  0  0  0  0  0  0
   -9.7989   -1.9404   -3.1172 O   0  0  0  0  0  0  0  0  0  0  0  0
   -8.7416   -3.8542   -2.6226 O   0  0  0  0  0  0  0  0  0  0  0  0
   -9.7371   -4.5644   -3.3475 C   0  0  0  0  0  0  0  0  0  0  0  0
   -7.1176    6.0291    1.5677 O   0  0  0  0  0  0  0  0  0  0  0  0
   -4.9152    6.3858    1.7788 O   0  0  0  0  0  0  0  0  0  0  0  0
   -5.2056    7.7166    2.1841 C   0  0  0  0  0  0  0  0  0  0  0  0
    0.5788    7.6270   -0.8884 O   0  0  0  0  0  0  0  0  0  0  0  0
   -1.4906    7.0573   -0.2407 O   0  0  0  0  0  0  0  0  0  0  0  0
   -2.0103    8.1528   -0.9791 C   0  0  0  0  0  0  0  0  0  0  0  0
   -9.7738   -4.2149   -4.3810 H   0  0  0  0  0  0  0  0  0  0  0  0
  -10.7170   -4.4123   -2.8911 H   0  0  0  0  0  0  0  0  0  0  0  0
   -9.4538   -5.6130   -3.3070 H   0  0  0  0  0  0  0  0  0  0  0  0
   -4.2531    8.2408    2.2234 H   0  0  0  0  0  0  0  0  0  0  0  0
   -5.6887    7.7007    3.1630 H   0  0  0  0  0  0  0  0  0  0  0  0
   -5.8776    8.1921    1.4666 H   0  0  0  0  0  0  0  0  0  0  0  0
   -3.0891    8.1205   -0.8491 H   0  0  0  0  0  0  0  0  0  0  0  0
   -1.7482    8.0584   -2.0346 H   0  0  0  0  0  0  0  0  0  0  0  0
   -1.6033    9.0930   -0.6007 H   0  0  0  0  0  0  0  0  0  0  0  0
   -1.3735   -6.7757    3.3894 H   0  0  0  0  0  0  0  0  0  0  0  0
   -1.3007   -5.6482    4.7864 H   0  0  0  0  0  0  0  0  0  0  0  0
    0.0461   -5.6979    3.6215 H   0  0  0  0  0  0  0  0  0  0  0  0
   -0.7723   -5.4822    0.7156 H   0  0  0  0  0  0  0  0  0  0  0  0
    0.9104   -5.4457    0.1363 H   0  0  0  0  0  0  0  0  0  0  0  0
   -0.4194   -4.9122   -0.9430 H   0  0  0  0  0  0  0  0  0  0  0  0
    8.7968    0.9359    6.4885 H   0  0  0  0  0  0  0  0  0  0  0  0
    8.5609    2.6207    7.0354 H   0  0  0  0  0  0  0  0  0  0  0  0
    9.2209    2.3086    5.4161 H   0  0  0  0  0  0  0  0  0  0  0  0
   -8.9318   -0.0404   -1.6108 H   0  0  0  0  0  0  0  0  0  0  0  0
   -6.4985   -3.5675   -1.7342 H   0  0  0  0  0  0  0  0  0  0  0  0
   -7.6445    3.6825    0.7113 H   0  0  0  0  0  0  0  0  0  0  0  0
   -3.1750   -4.0815    1.1601 H   0  0  0  0  0  0  0  0  0  0  0  0
   -3.5046    4.5358    1.2592 H   0  0  0  0  0  0  0  0  0  0  0  0
   -1.4653   -0.9015    3.4707 H   0  0  0  0  0  0  0  0  0  0  0  0
   -1.6960    4.9213    0.7400 H   0  0  0  0  0  0  0  0  0  0  0  0
   -0.5147   -1.2930    0.4140 H   0  0  0  0  0  0  0  0  0  0  0  0
    2.1805   -2.2240    3.6051 H   0  0  0  0  0  0  0  0  0  0  0  0
    2.3383    6.3113    0.5785 H   0  0  0  0  0  0  0  0  0  0  0  0
    5.5423    4.5577    3.2672 H   0  0  0  0  0  0  0  0  0  0  0  0
    5.1494    0.7029    5.0948 H   0  0  0  0  0  0  0  0  0  0  0  0
    0.5262    3.8905    5.3048 C   0  0  0  0  0  0  0  0  0  0  0  0
    0.8102    2.8395    6.1709 C   0  0  0  0  0  0  0  0  0  0  0  0
    2.1556    2.5850    6.5435 C   0  0  0  0  0  0  0  0  0  0  0  0
    3.1104    3.6250    6.2379 C   0  0  0  0  0  0  0  0  0  0  0  0
    2.7630    4.7237    5.4206 C   0  0  0  0  0  0  0  0  0  0  0  0
    1.4824    4.8422    4.9404 C   0  0  0  0  0  0  0  0  0  0  0  0
    2.6211    1.4436    7.2851 C   0  0  0  0  0  0  0  0  0  0  0  0
    3.8687    1.6313    7.9289 C   0  0  0  0  0  0  0  0  0  0  0  0
    4.6859    2.7654    7.6483 C   0  0  0  0  0  0  0  0  0  0  0  0
    4.3331    3.6786    6.7517 N   0  0  0  0  0  0  0  0  0  0  0  0
    2.0341    0.1254    7.4112 C   0  0  0  0  0  0  0  0  0  0  0  0
    2.6288   -0.7297    8.4161 C   0  0  0  0  0  0  0  0  0  0  0  0
    3.6752   -0.4131    9.1651 N   0  0  0  0  0  0  0  0  0  0  0  0
    4.3520    0.6947    8.8852 C   0  0  0  0  0  0  0  0  0  0  0  0
    5.5735    0.9070    9.5514 C   0  0  0  0  0  0  0  0  0  0  0  0
    6.3645    2.0021    9.2353 C   0  0  0  0  0  0  0  0  0  0  0  0
    5.9302    2.9190    8.2891 C   0  0  0  0  0  0  0  0  0  0  0  0
    1.0501   -0.4951    6.5864 C   0  0  0  0  0  0  0  0  0  0  0  0
    0.8156   -1.8776    6.6833 C   0  0  0  0  0  0  0  0  0  0  0  0
    1.3739   -2.6615    7.7000 C   0  0  0  0  0  0  0  0  0  0  0  0
    2.2017   -2.0635    8.6128 C   0  0  0  0  0  0  0  0  0  0  0  0
   -0.1907    2.1589    6.7313 O   0  0  0  0  0  0  0  0  0  0  0  0
    0.3454    0.1281    5.6366 O   0  0  0  0  0  0  0  0  0  0  0  0
    1.1110    6.0554    4.1617 C   0  0  0  0  0  0  0  0  0  0  0  0
    1.1607   -4.1275    7.8493 C   0  0  0  0  0  0  0  0  0  0  0  0
    7.7049    2.1993    9.8561 C   0  0  0  0  0  0  0  0  0  0  0  0
   -1.7335   -1.6897    7.8424 C   0  0  0  0  0  0  0  0  0  0  0  0
   -2.1618   -0.8158    6.8422 C   0  0  0  0  0  0  0  0  0  0  0  0
   -3.0566   -1.2831    5.8326 C   0  0  0  0  0  0  0  0  0  0  0  0
   -3.3130   -2.7073    5.8299 C   0  0  0  0  0  0  0  0  0  0  0  0
   -2.7713   -3.5696    6.8157 C   0  0  0  0  0  0  0  0  0  0  0  0
   -2.0450   -3.0524    7.8545 C   0  0  0  0  0  0  0  0  0  0  0  0
   -3.8407   -0.4934    4.9136 C   0  0  0  0  0  0  0  0  0  0  0  0
   -4.8460   -1.1779    4.1893 C   0  0  0  0  0  0  0  0  0  0  0  0
   -4.8774   -2.5993    4.1551 C   0  0  0  0  0  0  0  0  0  0  0  0
   -4.1047   -3.3247    4.9576 N   0  0  0  0  0  0  0  0  0  0  0  0
   -3.8334    0.9308    4.7249 C   0  0  0  0  0  0  0  0  0  0  0  0
   -5.0482    1.5362    4.2260 C   0  0  0  0  0  0  0  0  0  0  0  0
   -5.9925    0.8530    3.5994 N   0  0  0  0  0  0  0  0  0  0  0  0
   -5.8496   -0.4651    3.4714 C   0  0  0  0  0  0  0  0  0  0  0  0
   -6.7630   -1.1626    2.6649 C   0  0  0  0  0  0  0  0  0  0  0  0
   -6.6880   -2.5457    2.5397 C   0  0  0  0  0  0  0  0  0  0  0  0
   -5.7644   -3.2646    3.2826 C   0  0  0  0  0  0  0  0  0  0  0  0
   -2.7254    1.8024    4.8877 C   0  0  0  0  0  0  0  0  0  0  0  0
   -2.9766    3.1627    5.0372 C   0  0  0  0  0  0  0  0  0  0  0  0
   -4.2334    3.7272    4.7903 C   0  0  0  0  0  0  0  0  0  0  0  0
   -5.2475    2.9340    4.3154 C   0  0  0  0  0  0  0  0  0  0  0  0
   -1.7260    0.4342    6.9821 O   0  0  0  0  0  0  0  0  0  0  0  0
   -1.4812    1.3418    4.8232 O   0  0  0  0  0  0  0  0  0  0  0  0
   -1.5787   -3.8473    9.0239 C   0  0  0  0  0  0  0  0  0  0  0  0
   -4.4601    5.1856    4.9697 C   0  0  0  0  0  0  0  0  0  0  0  0
   -7.6483   -3.2061    1.6130 C   0  0  0  0  0  0  0  0  0  0  0  0
   -0.7642    1.0229    6.0343 B   0  0  0  0  0  0  0  0  0  0  0  0
    8.5410    2.9504    9.4180 O   0  0  0  0  0  0  0  0  0  0  0  0
    7.8827    1.4384   10.9363 O   0  0  0  0  0  0  0  0  0  0  0  0
    9.1462    1.5495   11.5777 C   0  0  0  0  0  0  0  0  0  0  0  0
    0.6719   -4.7092    6.7561 O   0  0  0  0  0  0  0  0  0  0  0  0
    0.5464   -6.1249    6.7989 C   0  0  0  0  0  0  0  0  0  0  0  0
    1.4610   -4.7349    8.8497 O   0  0  0  0  0  0  0  0  0  0  0  0
   -1.1130   -3.3522   10.0182 O   0  0  0  0  0  0  0  0  0  0  0  0
   -1.7532   -5.1630    8.8640 O   0  0  0  0  0  0  0  0  0  0  0  0
   -1.3070   -5.9686    9.9514 C   0  0  0  0  0  0  0  0  0  0  0  0
   -8.5006   -2.6121    0.9984 O   0  0  0  0  0  0  0  0  0  0  0  0
   -7.4603   -4.5226    1.5261 O   0  0  0  0  0  0  0  0  0  0  0  0
   -8.3493   -5.2196    0.6617 C   0  0  0  0  0  0  0  0  0  0  0  0
   -5.4789    5.7597    4.6739 O   0  0  0  0  0  0  0  0  0  0  0  0
   -3.4078    5.7979    5.5226 O   0  0  0  0  0  0  0  0  0  0  0  0
   -3.5487    7.1860    5.7784 C   0  0  0  0  0  0  0  0  0  0  0  0
    1.8898    6.9176    3.8448 O   0  0  0  0  0  0  0  0  0  0  0  0
   -0.2005    6.1036    3.8951 O   0  0  0  0  0  0  0  0  0  0  0  0
   -0.6804    7.2748    3.2525 C   0  0  0  0  0  0  0  0  0  0  0  0
   -8.3106   -4.7986   -0.3448 H   0  0  0  0  0  0  0  0  0  0  0  0
   -9.3727   -5.1430    1.0352 H   0  0  0  0  0  0  0  0  0  0  0  0
   -8.0198   -6.2552    0.6619 H   0  0  0  0  0  0  0  0  0  0  0  0
   -2.6946    7.4705    6.3879 H   0  0  0  0  0  0  0  0  0  0  0  0
   -4.4824    7.3815    6.3105 H   0  0  0  0  0  0  0  0  0  0  0  0
   -3.5537    7.7469    4.8416 H   0  0  0  0  0  0  0  0  0  0  0  0
   -1.5849    6.9903    2.7198 H   0  0  0  0  0  0  0  0  0  0  0  0
    0.0708    7.6637    2.5623 H   0  0  0  0  0  0  0  0  0  0  0  0
   -0.9014    8.0374    4.0034 H   0  0  0  0  0  0  0  0  0  0  0  0
   -1.5551   -6.9947    9.6926 H   0  0  0  0  0  0  0  0  0  0  0  0
   -1.8108   -5.6694   10.8720 H   0  0  0  0  0  0  0  0  0  0  0  0
   -0.2295   -5.8452   10.0818 H   0  0  0  0  0  0  0  0  0  0  0  0
    1.1978   -6.5313    7.5760 H   0  0  0  0  0  0  0  0  0  0  0  0
    0.8368   -6.5051    5.8222 H   0  0  0  0  0  0  0  0  0  0  0  0
   -0.4882   -6.3908    7.0210 H   0  0  0  0  0  0  0  0  0  0  0  0
    9.1130    0.8775   12.4310 H   0  0  0  0  0  0  0  0  0  0  0  0
    9.3171    2.5772   11.9036 H   0  0  0  0  0  0  0  0  0  0  0  0
    9.9454    1.2619   10.8915 H   0  0  0  0  0  0  0  0  0  0  0  0
   -7.5323   -0.6116    2.1460 H   0  0  0  0  0  0  0  0  0  0  0  0
   -5.7205   -4.3398    3.2272 H   0  0  0  0  0  0  0  0  0  0  0  0
   -6.1907    3.3460    3.9945 H   0  0  0  0  0  0  0  0  0  0  0  0
   -3.0259   -4.6149    6.7549 H   0  0  0  0  0  0  0  0  0  0  0  0
   -2.1776    3.8123    5.3445 H   0  0  0  0  0  0  0  0  0  0  0  0
   -1.1553   -1.2764    8.6553 H   0  0  0  0  0  0  0  0  0  0  0  0
   -0.4734    3.9946    4.9259 H   0  0  0  0  0  0  0  0  0  0  0  0
    0.1895   -2.3291    5.9288 H   0  0  0  0  0  0  0  0  0  0  0  0
    2.6427   -2.6238    9.4215 H   0  0  0  0  0  0  0  0  0  0  0  0
    3.5032    5.4864    5.2413 H   0  0  0  0  0  0  0  0  0  0  0  0
    6.5340    3.7766    8.0347 H   0  0  0  0  0  0  0  0  0  0  0  0
    5.8860    0.1815   10.2846 H   0  0  0  0  0  0  0  0  0  0  0  0
  1  2  2  0  0  0  0
  1 96  1  0  0  0  0
  2  3  1  0  0  0  0
  3  4  2  0  0  0  0
  3  7  1  0  0  0  0
  4  5  1  0  0  0  0
  5  6  2  0  0  0  0
  5 99  1  0  0  0  0
  6  1  1  0  0  0  0
  6 24  1  0  0  0  0
  7  8  1  0  0  0  0
  7 11  2  0  0  0  0
  8  9  1  0  0  0  0
  9 10  2  0  0  0  0
 10  4  1  0  0  0  0
 11 12  1  0  0  0  0
 11 18  1  0  0  0  0
 12 13  2  0  0  0  0
 13 14  1  0  0  0  0
 14  8  1  0  0  0  0
 14 15  2  0  0  0  0
 15 16  1  0  0  0  0
 15101  1  0  0  0  0
 16 17  2  0  0  0  0
 16 26  1  0  0  0  0
 17  9  1  0  0  0  0
 17100  1  0  0  0  0
 18 19  2  0  0  0  0
 19 20  1  0  0  0  0
 19 97  1  0  0  0  0
 20 21  2  0  0  0  0
 20 25  1  0  0  0  0
 21 12  1  0  0  0  0
 21 98  1  0  0  0  0
 22  2  1  0  0  0  0
 23 18  1  0  0  0  0
 24 69  2  0  0  0  0
 24 70  1  0  0  0  0
 25 57  1  0  0  0  0
 25 59  2  0  0  0  0
 26 54  2  0  0  0  0
 26 55  1  0  0  0  0
 27 28  2  0  0  0  0
 27 95  1  0  0  0  0
 28 29  1  0  0  0  0
 28 48  1  0  0  0  0
 29 30  2  0  0  0  0
 29 33  1  0  0  0  0
 30 31  1  0  0  0  0
 31 32  2  0  0  0  0
 31 93  1  0  0  0  0
 32 27  1  0  0  0  0
 32 50  1  0  0  0  0
 33 37  2  0  0  0  0
 34 33  1  0  0  0  0
 34 35  1  0  0  0  0
 35 36  2  0  0  0  0
 36 30  1  0  0  0  0
 37 38  1  0  0  0  0
 37 44  1  0  0  0  0
 38 39  2  0  0  0  0
 39 40  1  0  0  0  0
 40 34  1  0  0  0  0
 40 41  2  0  0  0  0
 41 42  1  0  0  0  0
 41 90  1  0  0  0  0
 42 43  2  0  0  0  0
 42 52  1  0  0  0  0
 43 35  1  0  0  0  0
 43 91  1  0  0  0  0
 44 45  2  0  0  0  0
 44 49  1  0  0  0  0
 45 46  1  0  0  0  0
 45 94  1  0  0  0  0
 46 47  2  0  0  0  0
 46 51  1  0  0  0  0
 47 38  1  0  0  0  0
 47 92  1  0  0  0  0
 50 60  2  0  0  0  0
 50 61  1  0  0  0  0
 51 66  2  0  0  0  0
 51 67  1  0  0  0  0
 52 63  2  0  0  0  0
 52 64  1  0  0  0  0
 53 49  1  0  0  0  0
 53 22  1  0  0  0  0
 53 48  1  0  0  0  0
 53 23  1  0  0  0  0
 55 56  1  0  0  0  0
 56 87  1  0  0  0  0
 56 88  1  0  0  0  0
 56 89  1  0  0  0  0
 57 58  1  0  0  0  0
 58 84  1  0  0  0  0
 58 85  1  0  0  0  0
 58 86  1  0  0  0  0
 61 62  1  0  0  0  0
 62 81  1  0  0  0  0
 62 82  1  0  0  0  0
 62 83  1  0  0  0  0
 64 65  1  0  0  0  0
 65 72  1  0  0  0  0
 65 73  1  0  0  0  0
 65 74  1  0  0  0  0
 67 68  1  0  0  0  0
 68 75  1  0  0  0  0
 68 76  1  0  0  0  0
 68 77  1  0  0  0  0
 70 71  1  0  0  0  0
 71 78  1  0  0  0  0
 71 79  1  0  0  0  0
 71 80  1  0  0  0  0
102103  2  0  0  0  0
102197  1  0  0  0  0
103104  1  0  0  0  0
104105  2  0  0  0  0
104108  1  0  0  0  0
105106  1  0  0  0  0
106107  2  0  0  0  0
106200  1  0  0  0  0
107102  1  0  0  0  0
107125  1  0  0  0  0
108109  1  0  0  0  0
108112  2  0  0  0  0
109110  1  0  0  0  0
110111  2  0  0  0  0
111105  1  0  0  0  0
112113  1  0  0  0  0
112119  1  0  0  0  0
113114  2  0  0  0  0
114115  1  0  0  0  0
115109  1  0  0  0  0
115116  2  0  0  0  0
116117  1  0  0  0  0
116202  1  0  0  0  0
117118  2  0  0  0  0
117127  1  0  0  0  0
118110  1  0  0  0  0
118201  1  0  0  0  0
119120  2  0  0  0  0
120121  1  0  0  0  0
120198  1  0  0  0  0
121122  2  0  0  0  0
121126  1  0  0  0  0
122113  1  0  0  0  0
122199  1  0  0  0  0
123103  1  0  0  0  0
124119  1  0  0  0  0
125170  2  0  0  0  0
125171  1  0  0  0  0
126158  1  0  0  0  0
126160  2  0  0  0  0
127155  2  0  0  0  0
127156  1  0  0  0  0
128129  2  0  0  0  0
128196  1  0  0  0  0
129130  1  0  0  0  0
129149  1  0  0  0  0
130131  2  0  0  0  0
130134  1  0  0  0  0
131132  1  0  0  0  0
132133  2  0  0  0  0
132194  1  0  0  0  0
133128  1  0  0  0  0
133151  1  0  0  0  0
134138  2  0  0  0  0
135134  1  0  0  0  0
135136  1  0  0  0  0
136137  2  0  0  0  0
137131  1  0  0  0  0
138139  1  0  0  0  0
138145  1  0  0  0  0
139140  2  0  0  0  0
140141  1  0  0  0  0
141135  1  0  0  0  0
141142  2  0  0  0  0
142143  1  0  0  0  0
142191  1  0  0  0  0
143144  2  0  0  0  0
143153  1  0  0  0  0
144136  1  0  0  0  0
144192  1  0  0  0  0
145146  2  0  0  0  0
145150  1  0  0  0  0
146147  1  0  0  0  0
146195  1  0  0  0  0
147148  2  0  0  0  0
147152  1  0  0  0  0
148139  1  0  0  0  0
148193  1  0  0  0  0
151161  2  0  0  0  0
151162  1  0  0  0  0
152167  2  0  0  0  0
152168  1  0  0  0  0
153164  2  0  0  0  0
153165  1  0  0  0  0
154150  1  0  0  0  0
154123  1  0  0  0  0
154149  1  0  0  0  0
154124  1  0  0  0  0
156157  1  0  0  0  0
157188  1  0  0  0  0
157189  1  0  0  0  0
157190  1  0  0  0  0
158159  1  0  0  0  0
159185  1  0  0  0  0
159186  1  0  0  0  0
159187  1  0  0  0  0
162163  1  0  0  0  0
163182  1  0  0  0  0
163183  1  0  0  0  0
163184  1  0  0  0  0
165166  1  0  0  0  0
166173  1  0  0  0  0
166174  1  0  0  0  0
166175  1  0  0  0  0
168169  1  0  0  0  0
169176  1  0  0  0  0
169177  1  0  0  0  0
169178  1  0  0  0  0
171172  1  0  0  0  0
172179  1  0  0  0  0
172180  1  0  0  0  0
172181  1  0  0  0  0
M  CHG  1   8   1
M  CHG  1  53  -1
M  CHG  1 109   1
M  CHG  1 154  -1
M  END
