 energy: -27.601337914275 gnorm: 0.000321766750 xtb: 6.7.1 (edcfbbe)
          03042511103D

152160  0     0  0            999 V2000
   -3.2869    2.6026   -2.5487 C   0  0  0  0  0  0  0  0  0  0  0  0
   -3.0844    1.3435   -1.9888 C   0  0  0  0  0  0  0  0  0  0  0  0
   -1.9990    1.1749   -1.0669 C   0  0  0  0  0  0  0  0  0  0  0  0
   -0.9903    2.1750   -1.0204 C   0  0  0  0  0  0  0  0  0  0  0  0
   -1.2272    3.3985   -1.6742 C   0  0  0  0  0  0  0  0  0  0  0  0
   -2.3831    3.6472   -2.3822 C   0  0  0  0  0  0  0  0  0  0  0  0
   -1.8349    0.0292   -0.2276 C   0  0  0  0  0  0  0  0  0  0  0  0
   -0.5484   -0.2032    0.2717 C   0  0  0  0  0  0  0  0  0  0  0  0
    0.4264    0.8269    0.2176 C   0  0  0  0  0  0  0  0  0  0  0  0
    0.1865    2.0200   -0.3656 N   0  0  0  0  0  0  0  0  0  0  0  0
   -2.8465   -0.8972    0.1878 C   0  0  0  0  0  0  0  0  0  0  0  0
   -2.4222   -2.1814    0.6214 C   0  0  0  0  0  0  0  0  0  0  0  0
   -1.1259   -2.4815    0.8852 N   0  0  0  0  0  0  0  0  0  0  0  0
   -0.2391   -1.4614    0.8528 C   0  0  0  0  0  0  0  0  0  0  0  0
    1.0358   -1.6339    1.4082 C   0  0  0  0  0  0  0  0  0  0  0  0
    1.9677   -0.6093    1.4564 C   0  0  0  0  0  0  0  0  0  0  0  0
    1.6606    0.5956    0.8412 C   0  0  0  0  0  0  0  0  0  0  0  0
   -4.2286   -0.5464    0.3143 C   0  0  0  0  0  0  0  0  0  0  0  0
   -5.1431   -1.5574    0.5981 C   0  0  0  0  0  0  0  0  0  0  0  0
   -4.7495   -2.8682    0.8595 C   0  0  0  0  0  0  0  0  0  0  0  0
   -3.4025   -3.1527    0.8899 C   0  0  0  0  0  0  0  0  0  0  0  0
   -4.5797    0.7990    0.2482 O   0  0  0  0  0  0  0  0  0  0  0  0
   -3.9246    0.2955   -2.4161 O   0  0  0  0  0  0  0  0  0  0  0  0
   -2.6821    5.0134   -3.0153 C   0  0  0  0  0  0  0  0  0  0  0  0
   -5.7583   -3.9673    1.2234 C   0  0  0  0  0  0  0  0  0  0  0  0
    3.3188   -0.8366    2.1499 C   0  0  0  0  0  0  0  0  0  0  0  0
   -7.2127   -3.4899    1.0481 C   0  0  0  0  0  0  0  0  0  0  0  0
   -5.5390   -5.1881    0.3105 C   0  0  0  0  0  0  0  0  0  0  0  0
   -5.5475   -4.3713    2.6941 C   0  0  0  0  0  0  0  0  0  0  0  0
    4.2469   -1.6088    1.1993 C   0  0  0  0  0  0  0  0  0  0  0  0
    3.9787    0.5042    2.5262 C   0  0  0  0  0  0  0  0  0  0  0  0
    3.1196   -1.6486    3.4464 C   0  0  0  0  0  0  0  0  0  0  0  0
   -4.0162    5.5443   -2.4590 C   0  0  0  0  0  0  0  0  0  0  0  0
   -2.7798    4.8579   -4.5433 C   0  0  0  0  0  0  0  0  0  0  0  0
   -1.5811    6.0435   -2.6979 C   0  0  0  0  0  0  0  0  0  0  0  0
   -0.4687    4.1535   -1.5904 H   0  0  0  0  0  0  0  0  0  0  0  0
   -4.1493    2.7351   -3.1744 H   0  0  0  0  0  0  0  0  0  0  0  0
    2.3733    1.3977    0.8295 H   0  0  0  0  0  0  0  0  0  0  0  0
    1.2665   -2.5933    1.8307 H   0  0  0  0  0  0  0  0  0  0  0  0
   -3.0674   -4.1330    1.1741 H   0  0  0  0  0  0  0  0  0  0  0  0
   -6.1825   -1.3046    0.6627 H   0  0  0  0  0  0  0  0  0  0  0  0
   -5.9593    1.0488    0.1250 C   0  0  0  0  0  0  0  0  0  0  0  0
   -3.2315   -0.8249   -2.9298 C   0  0  0  0  0  0  0  0  0  0  0  0
   -1.4730    6.1833   -1.6228 H   0  0  0  0  0  0  0  0  0  0  0  0
   -1.8218    7.0127   -3.1337 H   0  0  0  0  0  0  0  0  0  0  0  0
   -0.6203    5.7299   -3.1048 H   0  0  0  0  0  0  0  0  0  0  0  0
   -3.5871    4.1822   -4.8220 H   0  0  0  0  0  0  0  0  0  0  0  0
   -1.8519    4.4560   -4.9489 H   0  0  0  0  0  0  0  0  0  0  0  0
   -2.9695    5.8185   -5.0214 H   0  0  0  0  0  0  0  0  0  0  0  0
   -4.8386    4.8689   -2.6904 H   0  0  0  0  0  0  0  0  0  0  0  0
   -4.2555    6.5192   -2.8826 H   0  0  0  0  0  0  0  0  0  0  0  0
   -3.9658    5.6503   -1.3758 H   0  0  0  0  0  0  0  0  0  0  0  0
    4.4065   -1.0503    0.2775 H   0  0  0  0  0  0  0  0  0  0  0  0
    3.8155   -2.5736    0.9345 H   0  0  0  0  0  0  0  0  0  0  0  0
    5.2177   -1.7873    1.6607 H   0  0  0  0  0  0  0  0  0  0  0  0
    2.8037   -2.6695    3.2392 H   0  0  0  0  0  0  0  0  0  0  0  0
    2.3623   -1.1842    4.0750 H   0  0  0  0  0  0  0  0  0  0  0  0
    4.0444   -1.7045    4.0196 H   0  0  0  0  0  0  0  0  0  0  0  0
    4.2651    1.0698    1.6408 H   0  0  0  0  0  0  0  0  0  0  0  0
    4.8827    0.3396    3.1107 H   0  0  0  0  0  0  0  0  0  0  0  0
    3.2995    1.1148    3.1203 H   0  0  0  0  0  0  0  0  0  0  0  0
   -5.6765   -3.5116    3.3510 H   0  0  0  0  0  0  0  0  0  0  0  0
   -4.5448   -4.7647    2.8555 H   0  0  0  0  0  0  0  0  0  0  0  0
   -6.2606   -5.1382    2.9951 H   0  0  0  0  0  0  0  0  0  0  0  0
   -5.6508   -4.9095   -0.7369 H   0  0  0  0  0  0  0  0  0  0  0  0
   -6.2619   -5.9734    0.5298 H   0  0  0  0  0  0  0  0  0  0  0  0
   -4.5433   -5.6094    0.4405 H   0  0  0  0  0  0  0  0  0  0  0  0
   -7.3948   -3.1585    0.0261 H   0  0  0  0  0  0  0  0  0  0  0  0
   -7.4425   -2.6684    1.7258 H   0  0  0  0  0  0  0  0  0  0  0  0
   -7.9126   -4.2965    1.2647 H   0  0  0  0  0  0  0  0  0  0  0  0
   -3.9584   -1.5666   -3.2613 H   0  0  0  0  0  0  0  0  0  0  0  0
   -2.5939   -1.2665   -2.1661 H   0  0  0  0  0  0  0  0  0  0  0  0
   -2.6201   -0.5129   -3.7770 H   0  0  0  0  0  0  0  0  0  0  0  0
   -6.1042    2.1121   -0.0682 H   0  0  0  0  0  0  0  0  0  0  0  0
   -6.4725    0.7843    1.0501 H   0  0  0  0  0  0  0  0  0  0  0  0
   -6.3593    0.4815   -0.7165 H   0  0  0  0  0  0  0  0  0  0  0  0
   -2.2749    1.3291    3.0776 C   0  0  0  0  0  0  0  0  0  0  0  0
   -1.7624    0.2933    3.8561 C   0  0  0  0  0  0  0  0  0  0  0  0
   -0.6066    0.5645    4.6665 C   0  0  0  0  0  0  0  0  0  0  0  0
    0.1809    1.7075    4.3492 C   0  0  0  0  0  0  0  0  0  0  0  0
   -0.3921    2.7051    3.5404 C   0  0  0  0  0  0  0  0  0  0  0  0
   -1.6321    2.5606    2.9558 C   0  0  0  0  0  0  0  0  0  0  0  0
   -0.1524   -0.2555    5.7508 C   0  0  0  0  0  0  0  0  0  0  0  0
    1.2015   -0.1494    6.0906 C   0  0  0  0  0  0  0  0  0  0  0  0
    1.9764    0.9244    5.5764 C   0  0  0  0  0  0  0  0  0  0  0  0
    1.4509    1.8844    4.7867 N   0  0  0  0  0  0  0  0  0  0  0  0
   -0.9343   -1.1560    6.5408 C   0  0  0  0  0  0  0  0  0  0  0  0
   -0.2476   -2.1585    7.2756 C   0  0  0  0  0  0  0  0  0  0  0  0
    1.0966   -2.1624    7.4475 N   0  0  0  0  0  0  0  0  0  0  0  0
    1.7915   -1.1181    6.9463 C   0  0  0  0  0  0  0  0  0  0  0  0
    3.1558   -0.9914    7.2454 C   0  0  0  0  0  0  0  0  0  0  0  0
    3.9273    0.0564    6.7654 C   0  0  0  0  0  0  0  0  0  0  0  0
    3.3256    1.0010    5.9495 C   0  0  0  0  0  0  0  0  0  0  0  0
   -2.3567   -1.0526    6.6722 C   0  0  0  0  0  0  0  0  0  0  0  0
   -3.0418   -2.1007    7.2805 C   0  0  0  0  0  0  0  0  0  0  0  0
   -2.3835   -3.1857    7.8556 C   0  0  0  0  0  0  0  0  0  0  0  0
   -1.0058   -3.1760    7.8813 C   0  0  0  0  0  0  0  0  0  0  0  0
   -2.9851    0.1185    6.2536 O   0  0  0  0  0  0  0  0  0  0  0  0
   -2.3987   -0.9524    3.7457 O   0  0  0  0  0  0  0  0  0  0  0  0
   -2.3022    3.7630    2.2735 C   0  0  0  0  0  0  0  0  0  0  0  0
   -3.1454   -4.3502    8.5053 C   0  0  0  0  0  0  0  0  0  0  0  0
    5.4106    0.2154    7.1320 C   0  0  0  0  0  0  0  0  0  0  0  0
   -4.6676   -4.2220    8.3018 C   0  0  0  0  0  0  0  0  0  0  0  0
   -2.6857   -5.6757    7.8699 C   0  0  0  0  0  0  0  0  0  0  0  0
   -2.8523   -4.3678   10.0158 C   0  0  0  0  0  0  0  0  0  0  0  0
    6.2576    0.2563    5.8469 C   0  0  0  0  0  0  0  0  0  0  0  0
    5.5973    1.5267    7.9166 C   0  0  0  0  0  0  0  0  0  0  0  0
    5.9117   -0.9513    8.0045 C   0  0  0  0  0  0  0  0  0  0  0  0
   -2.9001    4.6695    3.3631 C   0  0  0  0  0  0  0  0  0  0  0  0
   -3.4327    3.3173    1.3291 C   0  0  0  0  0  0  0  0  0  0  0  0
   -1.2665    4.5631    1.4597 C   0  0  0  0  0  0  0  0  0  0  0  0
    0.1643    3.6143    3.4118 H   0  0  0  0  0  0  0  0  0  0  0  0
   -3.1641    1.1219    2.5121 H   0  0  0  0  0  0  0  0  0  0  0  0
    3.8981    1.8315    5.5808 H   0  0  0  0  0  0  0  0  0  0  0  0
    3.5886   -1.7391    7.8821 H   0  0  0  0  0  0  0  0  0  0  0  0
   -0.4726   -3.9597    8.3865 H   0  0  0  0  0  0  0  0  0  0  0  0
   -4.1107   -2.0484    7.3372 H   0  0  0  0  0  0  0  0  0  0  0  0
   -4.3710    0.0045    6.0311 C   0  0  0  0  0  0  0  0  0  0  0  0
   -1.5422   -2.0762    3.8240 C   0  0  0  0  0  0  0  0  0  0  0  0
   -0.5678    5.0893    2.1083 H   0  0  0  0  0  0  0  0  0  0  0  0
   -1.7539    5.3095    0.8332 H   0  0  0  0  0  0  0  0  0  0  0  0
   -0.6906    3.9003    0.8173 H   0  0  0  0  0  0  0  0  0  0  0  0
   -4.2478    2.8512    1.8808 H   0  0  0  0  0  0  0  0  0  0  0  0
   -3.0703    2.6000    0.5967 H   0  0  0  0  0  0  0  0  0  0  0  0
   -3.8485    4.1668    0.7886 H   0  0  0  0  0  0  0  0  0  0  0  0
   -3.6413    4.1282    3.9502 H   0  0  0  0  0  0  0  0  0  0  0  0
   -3.3841    5.5417    2.9246 H   0  0  0  0  0  0  0  0  0  0  0  0
   -2.1258    5.0188    4.0454 H   0  0  0  0  0  0  0  0  0  0  0  0
    5.9873    1.1049    5.2203 H   0  0  0  0  0  0  0  0  0  0  0  0
    6.1170   -0.6530    5.2634 H   0  0  0  0  0  0  0  0  0  0  0  0
    7.3179    0.3443    6.0824 H   0  0  0  0  0  0  0  0  0  0  0  0
    5.7997   -1.9036    7.4870 H   0  0  0  0  0  0  0  0  0  0  0  0
    5.3650   -1.0010    8.9456 H   0  0  0  0  0  0  0  0  0  0  0  0
    6.9675   -0.8282    8.2446 H   0  0  0  0  0  0  0  0  0  0  0  0
    5.3034    2.3893    7.3201 H   0  0  0  0  0  0  0  0  0  0  0  0
    6.6381    1.6622    8.2091 H   0  0  0  0  0  0  0  0  0  0  0  0
    4.9895    1.5234    8.8209 H   0  0  0  0  0  0  0  0  0  0  0  0
   -3.1560   -3.4286   10.4772 H   0  0  0  0  0  0  0  0  0  0  0  0
   -1.7897   -4.5070   10.2102 H   0  0  0  0  0  0  0  0  0  0  0  0
   -3.3912   -5.1765   10.5086 H   0  0  0  0  0  0  0  0  0  0  0  0
   -2.8622   -5.6677    6.7946 H   0  0  0  0  0  0  0  0  0  0  0  0
   -3.2276   -6.5202    8.2946 H   0  0  0  0  0  0  0  0  0  0  0  0
   -1.6228   -5.8474    8.0332 H   0  0  0  0  0  0  0  0  0  0  0  0
   -4.9187   -4.1819    7.2421 H   0  0  0  0  0  0  0  0  0  0  0  0
   -5.0557   -3.3258    8.7848 H   0  0  0  0  0  0  0  0  0  0  0  0
   -5.1882   -5.0767    8.7329 H   0  0  0  0  0  0  0  0  0  0  0  0
   -1.8124   -2.7770    3.0357 H   0  0  0  0  0  0  0  0  0  0  0  0
   -1.6685   -2.5746    4.7838 H   0  0  0  0  0  0  0  0  0  0  0  0
   -0.5028   -1.7762    3.6905 H   0  0  0  0  0  0  0  0  0  0  0  0
   -4.7144    0.9081    5.5265 H   0  0  0  0  0  0  0  0  0  0  0  0
   -4.8986   -0.0946    6.9801 H   0  0  0  0  0  0  0  0  0  0  0  0
   -4.5668   -0.8539    5.3866 H   0  0  0  0  0  0  0  0  0  0  0  0
  1  2  2  0  0  0  0
  1 37  1  0  0  0  0
  2  3  1  0  0  0  0
  2 23  1  0  0  0  0
  3  4  2  0  0  0  0
  3  7  1  0  0  0  0
  4  5  1  0  0  0  0
  5  6  2  0  0  0  0
  5 36  1  0  0  0  0
  6  1  1  0  0  0  0
  6 24  1  0  0  0  0
  7 11  2  0  0  0  0
  8  7  1  0  0  0  0
  8  9  1  0  0  0  0
  9 10  2  0  0  0  0
 10  4  1  0  0  0  0
 11 12  1  0  0  0  0
 11 18  1  0  0  0  0
 12 13  2  0  0  0  0
 13 14  1  0  0  0  0
 14  8  1  0  0  0  0
 14 15  2  0  0  0  0
 15 16  1  0  0  0  0
 15 39  1  0  0  0  0
 16 17  2  0  0  0  0
 16 26  1  0  0  0  0
 17  9  1  0  0  0  0
 17 38  1  0  0  0  0
 18 19  2  0  0  0  0
 19 20  1  0  0  0  0
 19 41  1  0  0  0  0
 20 21  2  0  0  0  0
 20 25  1  0  0  0  0
 21 12  1  0  0  0  0
 21 40  1  0  0  0  0
 22 42  1  0  0  0  0
 22 18  1  0  0  0  0
 23 43  1  0  0  0  0
 24 33  1  0  0  0  0
 24 34  1  0  0  0  0
 24 35  1  0  0  0  0
 25 27  1  0  0  0  0
 25 28  1  0  0  0  0
 25 29  1  0  0  0  0
 26 30  1  0  0  0  0
 26 31  1  0  0  0  0
 26 32  1  0  0  0  0
 27 68  1  0  0  0  0
 27 69  1  0  0  0  0
 27 70  1  0  0  0  0
 28 65  1  0  0  0  0
 28 66  1  0  0  0  0
 28 67  1  0  0  0  0
 29 62  1  0  0  0  0
 29 63  1  0  0  0  0
 29 64  1  0  0  0  0
 30 53  1  0  0  0  0
 30 54  1  0  0  0  0
 30 55  1  0  0  0  0
 31 59  1  0  0  0  0
 31 60  1  0  0  0  0
 31 61  1  0  0  0  0
 32 56  1  0  0  0  0
 32 57  1  0  0  0  0
 32 58  1  0  0  0  0
 33 50  1  0  0  0  0
 33 51  1  0  0  0  0
 33 52  1  0  0  0  0
 34 47  1  0  0  0  0
 34 48  1  0  0  0  0
 34 49  1  0  0  0  0
 35 44  1  0  0  0  0
 35 45  1  0  0  0  0
 35 46  1  0  0  0  0
 42 74  1  0  0  0  0
 42 75  1  0  0  0  0
 42 76  1  0  0  0  0
 43 71  1  0  0  0  0
 43 72  1  0  0  0  0
 43 73  1  0  0  0  0
 77 78  2  0  0  0  0
 77113  1  0  0  0  0
 78 79  1  0  0  0  0
 78 99  1  0  0  0  0
 79 80  2  0  0  0  0
 79 83  1  0  0  0  0
 80 81  1  0  0  0  0
 81 82  2  0  0  0  0
 81112  1  0  0  0  0
 82 77  1  0  0  0  0
 82100  1  0  0  0  0
 83 87  2  0  0  0  0
 84 83  1  0  0  0  0
 84 85  1  0  0  0  0
 85 86  2  0  0  0  0
 86 80  1  0  0  0  0
 87 88  1  0  0  0  0
 87 94  1  0  0  0  0
 88 89  2  0  0  0  0
 89 90  1  0  0  0  0
 90 84  1  0  0  0  0
 90 91  2  0  0  0  0
 91 92  1  0  0  0  0
 91115  1  0  0  0  0
 92 93  2  0  0  0  0
 92102  1  0  0  0  0
 93 85  1  0  0  0  0
 93114  1  0  0  0  0
 94 95  2  0  0  0  0
 95 96  1  0  0  0  0
 95117  1  0  0  0  0
 96 97  2  0  0  0  0
 96101  1  0  0  0  0
 97 88  1  0  0  0  0
 97116  1  0  0  0  0
 98118  1  0  0  0  0
 98 94  1  0  0  0  0
 99119  1  0  0  0  0
100109  1  0  0  0  0
100110  1  0  0  0  0
100111  1  0  0  0  0
101103  1  0  0  0  0
101104  1  0  0  0  0
101105  1  0  0  0  0
102106  1  0  0  0  0
102107  1  0  0  0  0
102108  1  0  0  0  0
103144  1  0  0  0  0
103145  1  0  0  0  0
103146  1  0  0  0  0
104141  1  0  0  0  0
104142  1  0  0  0  0
104143  1  0  0  0  0
105138  1  0  0  0  0
105139  1  0  0  0  0
105140  1  0  0  0  0
106129  1  0  0  0  0
106130  1  0  0  0  0
106131  1  0  0  0  0
107135  1  0  0  0  0
107136  1  0  0  0  0
107137  1  0  0  0  0
108132  1  0  0  0  0
108133  1  0  0  0  0
108134  1  0  0  0  0
109126  1  0  0  0  0
109127  1  0  0  0  0
109128  1  0  0  0  0
110123  1  0  0  0  0
110124  1  0  0  0  0
110125  1  0  0  0  0
111120  1  0  0  0  0
111121  1  0  0  0  0
111122  1  0  0  0  0
118150  1  0  0  0  0
118151  1  0  0  0  0
118152  1  0  0  0  0
119147  1  0  0  0  0
119148  1  0  0  0  0
119149  1  0  0  0  0
M  END
