 energy: -209.203586500808 gnorm: 0.000105681705 xtb: 6.7.1 (edcfbbe)
          03042511123D

152160  0     0  0            999 V2000
   -3.2901    2.7048   -2.7952 C   0  0  0  0  0  0  0  0  0  0  0  0
   -3.1454    1.4938   -2.1591 C   0  0  0  0  0  0  0  0  0  0  0  0
   -2.1771    1.3370   -1.1454 C   0  0  0  0  0  0  0  0  0  0  0  0
   -1.2060    2.3770   -1.0047 C   0  0  0  0  0  0  0  0  0  0  0  0
   -1.4028    3.6099   -1.6672 C   0  0  0  0  0  0  0  0  0  0  0  0
   -2.4598    3.8068   -2.5166 C   0  0  0  0  0  0  0  0  0  0  0  0
   -2.0317    0.2054   -0.2874 C   0  0  0  0  0  0  0  0  0  0  0  0
   -0.7723    0.0175    0.2934 C   0  0  0  0  0  0  0  0  0  0  0  0
    0.1809    1.0709    0.2833 C   0  0  0  0  0  0  0  0  0  0  0  0
   -0.0914    2.2498   -0.2748 N   0  0  0  0  0  0  0  0  0  0  0  0
   -3.0238   -0.7675    0.0338 C   0  0  0  0  0  0  0  0  0  0  0  0
   -2.5593   -2.0335    0.5000 C   0  0  0  0  0  0  0  0  0  0  0  0
   -1.2893   -2.2616    0.8569 N   0  0  0  0  0  0  0  0  0  0  0  0
   -0.4410   -1.2333    0.8814 C   0  0  0  0  0  0  0  0  0  0  0  0
    0.8475   -1.3997    1.4288 C   0  0  0  0  0  0  0  0  0  0  0  0
    1.7663   -0.3574    1.4766 C   0  0  0  0  0  0  0  0  0  0  0  0
    1.4221    0.8682    0.9216 C   0  0  0  0  0  0  0  0  0  0  0  0
   -4.4182   -0.5444   -0.0060 C   0  0  0  0  0  0  0  0  0  0  0  0
   -5.2859   -1.6082    0.1472 C   0  0  0  0  0  0  0  0  0  0  0  0
   -4.8240   -2.9066    0.4193 C   0  0  0  0  0  0  0  0  0  0  0  0
   -3.4792   -3.0937    0.6303 C   0  0  0  0  0  0  0  0  0  0  0  0
   -4.8062    0.7536   -0.1018 O   0  0  0  0  0  0  0  0  0  0  0  0
   -3.9601    0.4560   -2.5824 O   0  0  0  0  0  0  0  0  0  0  0  0
   -2.7372    5.1296   -3.2098 C   0  0  0  0  0  0  0  0  0  0  0  0
   -5.7758   -4.0862    0.5557 C   0  0  0  0  0  0  0  0  0  0  0  0
    3.1541   -0.5967    2.0535 C   0  0  0  0  0  0  0  0  0  0  0  0
   -7.2271   -3.7279    0.2234 C   0  0  0  0  0  0  0  0  0  0  0  0
   -5.3311   -5.1977   -0.4052 C   0  0  0  0  0  0  0  0  0  0  0  0
   -5.7239   -4.5979    2.0021 C   0  0  0  0  0  0  0  0  0  0  0  0
    4.0027   -1.2446    0.9486 C   0  0  0  0  0  0  0  0  0  0  0  0
    3.8190    0.7108    2.4956 C   0  0  0  0  0  0  0  0  0  0  0  0
    3.0939   -1.5400    3.2620 C   0  0  0  0  0  0  0  0  0  0  0  0
   -4.1631    5.5768   -2.8590 C   0  0  0  0  0  0  0  0  0  0  0  0
   -2.6060    4.9457   -4.7279 C   0  0  0  0  0  0  0  0  0  0  0  0
   -1.7675    6.2296   -2.7713 C   0  0  0  0  0  0  0  0  0  0  0  0
   -0.6610    4.3670   -1.4811 H   0  0  0  0  0  0  0  0  0  0  0  0
   -4.0638    2.7754   -3.5440 H   0  0  0  0  0  0  0  0  0  0  0  0
    2.0951    1.7076    0.9353 H   0  0  0  0  0  0  0  0  0  0  0  0
    1.0844   -2.3785    1.8120 H   0  0  0  0  0  0  0  0  0  0  0  0
   -3.0764   -4.0448    0.9386 H   0  0  0  0  0  0  0  0  0  0  0  0
   -6.3440   -1.4286    0.0762 H   0  0  0  0  0  0  0  0  0  0  0  0
   -6.1650    1.0541   -0.2801 C   0  0  0  0  0  0  0  0  0  0  0  0
   -3.2807   -0.6208   -3.1872 C   0  0  0  0  0  0  0  0  0  0  0  0
   -1.8123    6.3809   -1.6956 H   0  0  0  0  0  0  0  0  0  0  0  0
   -2.0352    7.1655   -3.2575 H   0  0  0  0  0  0  0  0  0  0  0  0
   -0.7462    5.9852   -3.0521 H   0  0  0  0  0  0  0  0  0  0  0  0
   -3.3258    4.2244   -5.1048 H   0  0  0  0  0  0  0  0  0  0  0  0
   -1.6070    4.5950   -4.9782 H   0  0  0  0  0  0  0  0  0  0  0  0
   -2.7765    5.8930   -5.2351 H   0  0  0  0  0  0  0  0  0  0  0  0
   -4.9004    4.8516   -3.1917 H   0  0  0  0  0  0  0  0  0  0  0  0
   -4.3843    6.5304   -3.3339 H   0  0  0  0  0  0  0  0  0  0  0  0
   -4.2633    5.6955   -1.7822 H   0  0  0  0  0  0  0  0  0  0  0  0
    4.0711   -0.5848    0.0862 H   0  0  0  0  0  0  0  0  0  0  0  0
    3.5599   -2.1841    0.6248 H   0  0  0  0  0  0  0  0  0  0  0  0
    5.0075   -1.4423    1.3156 H   0  0  0  0  0  0  0  0  0  0  0  0
    2.8537   -2.5585    2.9690 H   0  0  0  0  0  0  0  0  0  0  0  0
    2.3503   -1.1982    3.9769 H   0  0  0  0  0  0  0  0  0  0  0  0
    4.0579   -1.5609    3.7652 H   0  0  0  0  0  0  0  0  0  0  0  0
    4.0721    1.3348    1.6424 H   0  0  0  0  0  0  0  0  0  0  0  0
    4.7426    0.4865    3.0248 H   0  0  0  0  0  0  0  0  0  0  0  0
    3.1644    1.2672    3.1620 H   0  0  0  0  0  0  0  0  0  0  0  0
   -6.0065   -3.8051    2.6918 H   0  0  0  0  0  0  0  0  0  0  0  0
   -4.7249   -4.9346    2.2634 H   0  0  0  0  0  0  0  0  0  0  0  0
   -6.4122   -5.4307    2.1307 H   0  0  0  0  0  0  0  0  0  0  0  0
   -5.3551   -4.8387   -1.4320 H   0  0  0  0  0  0  0  0  0  0  0  0
   -5.9982   -6.0532   -0.3231 H   0  0  0  0  0  0  0  0  0  0  0  0
   -4.3212   -5.5304   -0.1849 H   0  0  0  0  0  0  0  0  0  0  0  0
   -7.3109   -3.3304   -0.7856 H   0  0  0  0  0  0  0  0  0  0  0  0
   -7.6275   -3.0035    0.9292 H   0  0  0  0  0  0  0  0  0  0  0  0
   -7.8424   -4.6234    0.2834 H   0  0  0  0  0  0  0  0  0  0  0  0
   -4.0437   -1.3553   -3.4404 H   0  0  0  0  0  0  0  0  0  0  0  0
   -2.5484   -1.0832   -2.5185 H   0  0  0  0  0  0  0  0  0  0  0  0
   -2.7702   -0.2955   -4.1017 H   0  0  0  0  0  0  0  0  0  0  0  0
   -6.2100    2.1364   -0.3923 H   0  0  0  0  0  0  0  0  0  0  0  0
   -6.7640    0.7557    0.5876 H   0  0  0  0  0  0  0  0  0  0  0  0
   -6.5608    0.5804   -1.1833 H   0  0  0  0  0  0  0  0  0  0  0  0
   -2.1441    1.1932    3.2238 C   0  0  0  0  0  0  0  0  0  0  0  0
   -1.6180    0.1342    3.9494 C   0  0  0  0  0  0  0  0  0  0  0  0
   -0.5025    0.3527    4.7845 C   0  0  0  0  0  0  0  0  0  0  0  0
    0.2745    1.5304    4.5156 C   0  0  0  0  0  0  0  0  0  0  0  0
   -0.2915    2.5751    3.7591 C   0  0  0  0  0  0  0  0  0  0  0  0
   -1.5424    2.4582    3.1973 C   0  0  0  0  0  0  0  0  0  0  0  0
   -0.0583   -0.4471    5.8830 C   0  0  0  0  0  0  0  0  0  0  0  0
    1.2902   -0.3161    6.2490 C   0  0  0  0  0  0  0  0  0  0  0  0
    2.0697    0.7535    5.7275 C   0  0  0  0  0  0  0  0  0  0  0  0
    1.5191    1.7029    4.9695 N   0  0  0  0  0  0  0  0  0  0  0  0
   -0.8422   -1.3119    6.7064 C   0  0  0  0  0  0  0  0  0  0  0  0
   -0.1401   -2.2535    7.5204 C   0  0  0  0  0  0  0  0  0  0  0  0
    1.1885   -2.2479    7.6770 N   0  0  0  0  0  0  0  0  0  0  0  0
    1.8839   -1.2438    7.1465 C   0  0  0  0  0  0  0  0  0  0  0  0
    3.2616   -1.1258    7.4373 C   0  0  0  0  0  0  0  0  0  0  0  0
    4.0288   -0.0917    6.9255 C   0  0  0  0  0  0  0  0  0  0  0  0
    3.4238    0.8497    6.0974 C   0  0  0  0  0  0  0  0  0  0  0  0
   -2.2509   -1.2481    6.8451 C   0  0  0  0  0  0  0  0  0  0  0  0
   -2.9198   -2.2067    7.5791 C   0  0  0  0  0  0  0  0  0  0  0  0
   -2.2398   -3.2424    8.2420 C   0  0  0  0  0  0  0  0  0  0  0  0
   -0.8673   -3.2332    8.2281 C   0  0  0  0  0  0  0  0  0  0  0  0
   -2.8572   -0.1730    6.2734 O   0  0  0  0  0  0  0  0  0  0  0  0
   -2.2423   -1.0623    3.7602 O   0  0  0  0  0  0  0  0  0  0  0  0
   -2.2386    3.6779    2.6178 C   0  0  0  0  0  0  0  0  0  0  0  0
   -2.9785   -4.3322    9.0047 C   0  0  0  0  0  0  0  0  0  0  0  0
    5.5082    0.0625    7.2489 C   0  0  0  0  0  0  0  0  0  0  0  0
   -4.5011   -4.2272    8.8786 C   0  0  0  0  0  0  0  0  0  0  0  0
   -2.5492   -5.6980    8.4503 C   0  0  0  0  0  0  0  0  0  0  0  0
   -2.6108   -4.2369   10.4917 C   0  0  0  0  0  0  0  0  0  0  0  0
    6.3093    0.0549    5.9395 C   0  0  0  0  0  0  0  0  0  0  0  0
    5.7196    1.3951    7.9804 C   0  0  0  0  0  0  0  0  0  0  0  0
    6.0382   -1.0642    8.1393 C   0  0  0  0  0  0  0  0  0  0  0  0
   -2.7777    4.4767    3.8173 C   0  0  0  0  0  0  0  0  0  0  0  0
   -3.4169    3.3147    1.7111 C   0  0  0  0  0  0  0  0  0  0  0  0
   -1.2555    4.5538    1.8308 C   0  0  0  0  0  0  0  0  0  0  0  0
    0.3010    3.4683    3.6616 H   0  0  0  0  0  0  0  0  0  0  0  0
   -3.0386    0.9889    2.6588 H   0  0  0  0  0  0  0  0  0  0  0  0
    3.9721    1.6917    5.7074 H   0  0  0  0  0  0  0  0  0  0  0  0
    3.6719   -1.8750    8.0919 H   0  0  0  0  0  0  0  0  0  0  0  0
   -0.2833   -3.9456    8.7868 H   0  0  0  0  0  0  0  0  0  0  0  0
   -3.9911   -2.1493    7.6521 H   0  0  0  0  0  0  0  0  0  0  0  0
   -4.2554   -0.0678    6.3104 C   0  0  0  0  0  0  0  0  0  0  0  0
   -1.5296   -2.2669    3.9411 C   0  0  0  0  0  0  0  0  0  0  0  0
   -0.5701    5.0720    2.4958 H   0  0  0  0  0  0  0  0  0  0  0  0
   -1.8019    5.3056    1.2651 H   0  0  0  0  0  0  0  0  0  0  0  0
   -0.6772    3.9488    1.1379 H   0  0  0  0  0  0  0  0  0  0  0  0
   -4.2006    2.8066    2.2676 H   0  0  0  0  0  0  0  0  0  0  0  0
   -3.1030    2.6783    0.8894 H   0  0  0  0  0  0  0  0  0  0  0  0
   -3.8457    4.2219    1.2890 H   0  0  0  0  0  0  0  0  0  0  0  0
   -3.4881    3.8786    4.3846 H   0  0  0  0  0  0  0  0  0  0  0  0
   -3.2802    5.3781    3.4724 H   0  0  0  0  0  0  0  0  0  0  0  0
   -1.9668    4.7622    4.4831 H   0  0  0  0  0  0  0  0  0  0  0  0
    6.0168    0.8761    5.2914 H   0  0  0  0  0  0  0  0  0  0  0  0
    6.1475   -0.8801    5.4063 H   0  0  0  0  0  0  0  0  0  0  0  0
    7.3724    0.1498    6.1507 H   0  0  0  0  0  0  0  0  0  0  0  0
    5.9154   -2.0323    7.6596 H   0  0  0  0  0  0  0  0  0  0  0  0
    5.5299   -1.0759    9.1003 H   0  0  0  0  0  0  0  0  0  0  0  0
    7.0999   -0.9111    8.3230 H   0  0  0  0  0  0  0  0  0  0  0  0
    5.4118    2.2369    7.3668 H   0  0  0  0  0  0  0  0  0  0  0  0
    6.7705    1.5213    8.2322 H   0  0  0  0  0  0  0  0  0  0  0  0
    5.1395    1.4138    8.9007 H   0  0  0  0  0  0  0  0  0  0  0  0
   -2.8906   -3.2627   10.8874 H   0  0  0  0  0  0  0  0  0  0  0  0
   -1.5434   -4.3703   10.6407 H   0  0  0  0  0  0  0  0  0  0  0  0
   -3.1355   -5.0038   11.0577 H   0  0  0  0  0  0  0  0  0  0  0  0
   -2.7985   -5.7704    7.3936 H   0  0  0  0  0  0  0  0  0  0  0  0
   -3.0627   -6.4966    8.9818 H   0  0  0  0  0  0  0  0  0  0  0  0
   -1.4793   -5.8481    8.5584 H   0  0  0  0  0  0  0  0  0  0  0  0
   -4.8127   -4.2764    7.8375 H   0  0  0  0  0  0  0  0  0  0  0  0
   -4.8715   -3.3053    9.3217 H   0  0  0  0  0  0  0  0  0  0  0  0
   -4.9644   -5.0582    9.4067 H   0  0  0  0  0  0  0  0  0  0  0  0
   -1.7854   -2.9074    3.0953 H   0  0  0  0  0  0  0  0  0  0  0  0
   -1.8176   -2.7606    4.8733 H   0  0  0  0  0  0  0  0  0  0  0  0
   -0.4505   -2.1028    3.9429 H   0  0  0  0  0  0  0  0  0  0  0  0
   -4.4901    0.8433    5.7619 H   0  0  0  0  0  0  0  0  0  0  0  0
   -4.6290    0.0206    7.3365 H   0  0  0  0  0  0  0  0  0  0  0  0
   -4.7346   -0.9185    5.8152 H   0  0  0  0  0  0  0  0  0  0  0  0
  1  2  2  0  0  0  0
  1 37  1  0  0  0  0
  2  3  1  0  0  0  0
  2 23  1  0  0  0  0
  3  4  2  0  0  0  0
  3  7  1  0  0  0  0
  4  5  1  0  0  0  0
  5  6  2  0  0  0  0
  5 36  1  0  0  0  0
  6  1  1  0  0  0  0
  6 24  1  0  0  0  0
  7 11  2  0  0  0  0
  8  7  1  0  0  0  0
  8  9  1  0  0  0  0
  9 10  2  0  0  0  0
 10  4  1  0  0  0  0
 11 12  1  0  0  0  0
 11 18  1  0  0  0  0
 12 13  2  0  0  0  0
 13 14  1  0  0  0  0
 14  8  1  0  0  0  0
 14 15  2  0  0  0  0
 15 16  1  0  0  0  0
 15 39  1  0  0  0  0
 16 17  2  0  0  0  0
 16 26  1  0  0  0  0
 17  9  1  0  0  0  0
 17 38  1  0  0  0  0
 18 19  2  0  0  0  0
 19 20  1  0  0  0  0
 19 41  1  0  0  0  0
 20 21  2  0  0  0  0
 20 25  1  0  0  0  0
 21 12  1  0  0  0  0
 21 40  1  0  0  0  0
 22 42  1  0  0  0  0
 22 18  1  0  0  0  0
 23 43  1  0  0  0  0
 24 33  1  0  0  0  0
 24 34  1  0  0  0  0
 24 35  1  0  0  0  0
 25 27  1  0  0  0  0
 25 28  1  0  0  0  0
 25 29  1  0  0  0  0
 26 30  1  0  0  0  0
 26 31  1  0  0  0  0
 26 32  1  0  0  0  0
 27 68  1  0  0  0  0
 27 69  1  0  0  0  0
 27 70  1  0  0  0  0
 28 65  1  0  0  0  0
 28 66  1  0  0  0  0
 28 67  1  0  0  0  0
 29 62  1  0  0  0  0
 29 63  1  0  0  0  0
 29 64  1  0  0  0  0
 30 53  1  0  0  0  0
 30 54  1  0  0  0  0
 30 55  1  0  0  0  0
 31 59  1  0  0  0  0
 31 60  1  0  0  0  0
 31 61  1  0  0  0  0
 32 56  1  0  0  0  0
 32 57  1  0  0  0  0
 32 58  1  0  0  0  0
 33 50  1  0  0  0  0
 33 51  1  0  0  0  0
 33 52  1  0  0  0  0
 34 47  1  0  0  0  0
 34 48  1  0  0  0  0
 34 49  1  0  0  0  0
 35 44  1  0  0  0  0
 35 45  1  0  0  0  0
 35 46  1  0  0  0  0
 42 74  1  0  0  0  0
 42 75  1  0  0  0  0
 42 76  1  0  0  0  0
 43 71  1  0  0  0  0
 43 72  1  0  0  0  0
 43 73  1  0  0  0  0
 77 78  2  0  0  0  0
 77113  1  0  0  0  0
 78 79  1  0  0  0  0
 78 99  1  0  0  0  0
 79 80  2  0  0  0  0
 79 83  1  0  0  0  0
 80 81  1  0  0  0  0
 81 82  2  0  0  0  0
 81112  1  0  0  0  0
 82 77  1  0  0  0  0
 82100  1  0  0  0  0
 83 87  2  0  0  0  0
 84 83  1  0  0  0  0
 84 85  1  0  0  0  0
 85 86  2  0  0  0  0
 86 80  1  0  0  0  0
 87 88  1  0  0  0  0
 87 94  1  0  0  0  0
 88 89  2  0  0  0  0
 89 90  1  0  0  0  0
 90 84  1  0  0  0  0
 90 91  2  0  0  0  0
 91 92  1  0  0  0  0
 91115  1  0  0  0  0
 92 93  2  0  0  0  0
 92102  1  0  0  0  0
 93 85  1  0  0  0  0
 93114  1  0  0  0  0
 94 95  2  0  0  0  0
 95 96  1  0  0  0  0
 95117  1  0  0  0  0
 96 97  2  0  0  0  0
 96101  1  0  0  0  0
 97 88  1  0  0  0  0
 97116  1  0  0  0  0
 98118  1  0  0  0  0
 98 94  1  0  0  0  0
 99119  1  0  0  0  0
100109  1  0  0  0  0
100110  1  0  0  0  0
100111  1  0  0  0  0
101103  1  0  0  0  0
101104  1  0  0  0  0
101105  1  0  0  0  0
102106  1  0  0  0  0
102107  1  0  0  0  0
102108  1  0  0  0  0
103144  1  0  0  0  0
103145  1  0  0  0  0
103146  1  0  0  0  0
104141  1  0  0  0  0
104142  1  0  0  0  0
104143  1  0  0  0  0
105138  1  0  0  0  0
105139  1  0  0  0  0
105140  1  0  0  0  0
106129  1  0  0  0  0
106130  1  0  0  0  0
106131  1  0  0  0  0
107135  1  0  0  0  0
107136  1  0  0  0  0
107137  1  0  0  0  0
108132  1  0  0  0  0
108133  1  0  0  0  0
108134  1  0  0  0  0
109126  1  0  0  0  0
109127  1  0  0  0  0
109128  1  0  0  0  0
110123  1  0  0  0  0
110124  1  0  0  0  0
110125  1  0  0  0  0
111120  1  0  0  0  0
111121  1  0  0  0  0
111122  1  0  0  0  0
118150  1  0  0  0  0
118151  1  0  0  0  0
118152  1  0  0  0  0
119147  1  0  0  0  0
119148  1  0  0  0  0
119149  1  0  0  0  0
M  END
