 energy: -21.815566320814 gnorm: 0.001010020833 xtb: 6.7.1 (edcfbbe)
          03042512273D

116124  0     0  0            999 V2000
   -2.2877    1.7535   -3.1028 C   0  0  0  0  0  0  0  0  0  0  0  0
   -1.9818    0.7725   -2.1667 C   0  0  0  0  0  0  0  0  0  0  0  0
   -1.0735    1.1097   -1.1014 C   0  0  0  0  0  0  0  0  0  0  0  0
   -0.2514    2.2648   -1.2481 C   0  0  0  0  0  0  0  0  0  0  0  0
   -0.5917    3.2015   -2.2363 C   0  0  0  0  0  0  0  0  0  0  0  0
   -1.6217    2.9694   -3.1029 C   0  0  0  0  0  0  0  0  0  0  0  0
   -0.8719    0.2946    0.0592 C   0  0  0  0  0  0  0  0  0  0  0  0
    0.3518    0.4539    0.7183 C   0  0  0  0  0  0  0  0  0  0  0  0
    1.2040    1.5477    0.3803 C   0  0  0  0  0  0  0  0  0  0  0  0
    0.8545    2.4956   -0.5090 N   0  0  0  0  0  0  0  0  0  0  0  0
   -1.8073   -0.6122    0.6531 C   0  0  0  0  0  0  0  0  0  0  0  0
   -1.3171   -1.5121    1.6445 C   0  0  0  0  0  0  0  0  0  0  0  0
   -0.0586   -1.4786    2.1362 N   0  0  0  0  0  0  0  0  0  0  0  0
    0.7324   -0.4672    1.7366 C   0  0  0  0  0  0  0  0  0  0  0  0
    1.9816   -0.3013    2.3442 C   0  0  0  0  0  0  0  0  0  0  0  0
    2.7977    0.7557    2.0134 C   0  0  0  0  0  0  0  0  0  0  0  0
    2.4226    1.6713    1.0573 C   0  0  0  0  0  0  0  0  0  0  0  0
   -3.2267   -0.5450    0.4228 C   0  0  0  0  0  0  0  0  0  0  0  0
   -4.0358   -1.5299    0.9789 C   0  0  0  0  0  0  0  0  0  0  0  0
   -3.5271   -2.4557    1.8730 C   0  0  0  0  0  0  0  0  0  0  0  0
   -2.2035   -2.4420    2.2116 C   0  0  0  0  0  0  0  0  0  0  0  0
   -3.7649    0.5702   -0.2201 O   0  0  0  0  0  0  0  0  0  0  0  0
   -2.4470   -0.5367   -2.2501 O   0  0  0  0  0  0  0  0  0  0  0  0
   -2.1058    4.2762   -4.2545 S   0  0  0  0  0  0  0  0  0  0  0  0
   -4.6484   -3.6540    2.6341 S   0  0  0  0  0  0  0  0  0  0  0  0
   -0.0476    4.1276   -2.3003 H   0  0  0  0  0  0  0  0  0  0  0  0
   -3.0406    1.5809   -3.8490 H   0  0  0  0  0  0  0  0  0  0  0  0
    3.0827    2.4816    0.8044 H   0  0  0  0  0  0  0  0  0  0  0  0
    2.3061   -1.0105    3.0845 H   0  0  0  0  0  0  0  0  0  0  0  0
   -1.8306   -3.1413    2.9386 H   0  0  0  0  0  0  0  0  0  0  0  0
   -5.0910   -1.5499    0.7787 H   0  0  0  0  0  0  0  0  0  0  0  0
   -1.1992    5.3754   -3.7404 O   0  0  0  0  0  0  0  0  0  0  0  0
   -3.5540    4.6736   -3.4947 O   0  0  0  0  0  0  0  0  0  0  0  0
   -3.3600    5.2670   -2.2541 C   0  0  0  0  0  0  0  0  0  0  0  0
    4.3841    0.9384    2.8561 S   0  0  0  0  0  0  0  0  0  0  0  0
    4.7348   -0.5287    2.9797 O   0  0  0  0  0  0  0  0  0  0  0  0
    5.2690    1.3846    1.4985 O   0  0  0  0  0  0  0  0  0  0  0  0
    5.4628    0.3246    0.6226 C   0  0  0  0  0  0  0  0  0  0  0  0
   -5.3443   -4.1241    1.3754 O   0  0  0  0  0  0  0  0  0  0  0  0
   -3.4928   -4.8542    2.8553 O   0  0  0  0  0  0  0  0  0  0  0  0
   -3.1826   -5.5052    1.6685 C   0  0  0  0  0  0  0  0  0  0  0  0
   -5.0928    0.4260   -0.6675 C   0  0  0  0  0  0  0  0  0  0  0  0
   -3.1617   -0.8423   -3.4215 C   0  0  0  0  0  0  0  0  0  0  0  0
   -2.4612   -6.3008    1.8738 H   0  0  0  0  0  0  0  0  0  0  0  0
   -2.7578   -4.7932    0.9556 H   0  0  0  0  0  0  0  0  0  0  0  0
   -4.1028   -5.9303    1.2549 H   0  0  0  0  0  0  0  0  0  0  0  0
    6.1015    0.6568   -0.2006 H   0  0  0  0  0  0  0  0  0  0  0  0
    4.4998   -0.0138    0.2310 H   0  0  0  0  0  0  0  0  0  0  0  0
    5.9480   -0.4926    1.1656 H   0  0  0  0  0  0  0  0  0  0  0  0
   -3.4088   -1.9043   -3.4037 H   0  0  0  0  0  0  0  0  0  0  0  0
   -2.5431   -0.6342   -4.2953 H   0  0  0  0  0  0  0  0  0  0  0  0
   -4.0848   -0.2634   -3.4571 H   0  0  0  0  0  0  0  0  0  0  0  0
   -5.3291    1.2735   -1.3120 H   0  0  0  0  0  0  0  0  0  0  0  0
   -5.7810    0.4205    0.1778 H   0  0  0  0  0  0  0  0  0  0  0  0
   -5.1865   -0.4964   -1.2414 H   0  0  0  0  0  0  0  0  0  0  0  0
   -4.3161    5.6534   -1.8912 H   0  0  0  0  0  0  0  0  0  0  0  0
   -2.6444    6.0889   -2.3620 H   0  0  0  0  0  0  0  0  0  0  0  0
   -2.9747    4.5252   -1.5498 H   0  0  0  0  0  0  0  0  0  0  0  0
   -2.0074    2.4346    2.2883 C   0  0  0  0  0  0  0  0  0  0  0  0
   -2.0455    1.4338    3.2482 C   0  0  0  0  0  0  0  0  0  0  0  0
   -0.9551    1.3223    4.1760 C   0  0  0  0  0  0  0  0  0  0  0  0
    0.1769    2.1725    4.0131 C   0  0  0  0  0  0  0  0  0  0  0  0
    0.1159    3.2035    3.0580 C   0  0  0  0  0  0  0  0  0  0  0  0
   -0.9454    3.3145    2.2025 C   0  0  0  0  0  0  0  0  0  0  0  0
   -0.8745    0.2918    5.1655 C   0  0  0  0  0  0  0  0  0  0  0  0
    0.4009   -0.0102    5.6553 C   0  0  0  0  0  0  0  0  0  0  0  0
    1.4789    0.8936    5.4271 C   0  0  0  0  0  0  0  0  0  0  0  0
    1.3487    1.9979    4.6687 N   0  0  0  0  0  0  0  0  0  0  0  0
   -1.9481   -0.5048    5.6843 C   0  0  0  0  0  0  0  0  0  0  0  0
   -1.6173   -1.7752    6.2422 C   0  0  0  0  0  0  0  0  0  0  0  0
   -0.3576   -2.1366    6.5715 N   0  0  0  0  0  0  0  0  0  0  0  0
    0.6076   -1.2131    6.3946 C   0  0  0  0  0  0  0  0  0  0  0  0
    1.8754   -1.4371    6.9429 C   0  0  0  0  0  0  0  0  0  0  0  0
    2.8854   -0.5122    6.8039 C   0  0  0  0  0  0  0  0  0  0  0  0
    2.7085    0.6213    6.0407 C   0  0  0  0  0  0  0  0  0  0  0  0
   -3.3013   -0.0301    5.8143 C   0  0  0  0  0  0  0  0  0  0  0  0
   -4.2914   -0.9556    6.1197 C   0  0  0  0  0  0  0  0  0  0  0  0
   -3.9707   -2.2634    6.4490 C   0  0  0  0  0  0  0  0  0  0  0  0
   -2.6651   -2.6567    6.5539 C   0  0  0  0  0  0  0  0  0  0  0  0
   -3.5407    1.3396    5.7172 O   0  0  0  0  0  0  0  0  0  0  0  0
   -3.0804    0.4973    3.2497 O   0  0  0  0  0  0  0  0  0  0  0  0
   -0.9113    4.5776    0.9045 S   0  0  0  0  0  0  0  0  0  0  0  0
   -5.3102   -3.4370    6.7664 S   0  0  0  0  0  0  0  0  0  0  0  0
    0.9486    3.8775    2.9639 H   0  0  0  0  0  0  0  0  0  0  0  0
   -2.7730    2.4855    1.5373 H   0  0  0  0  0  0  0  0  0  0  0  0
    3.5267    1.3047    5.9034 H   0  0  0  0  0  0  0  0  0  0  0  0
    2.0611   -2.3434    7.4920 H   0  0  0  0  0  0  0  0  0  0  0  0
   -2.4326   -3.6504    6.8920 H   0  0  0  0  0  0  0  0  0  0  0  0
   -5.3261   -0.6669    6.1180 H   0  0  0  0  0  0  0  0  0  0  0  0
   -0.8643    5.8066    1.7879 O   0  0  0  0  0  0  0  0  0  0  0  0
   -2.5462    4.4989    0.5106 O   0  0  0  0  0  0  0  0  0  0  0  0
   -3.3340    5.2026    1.4131 C   0  0  0  0  0  0  0  0  0  0  0  0
    4.4453   -0.7967    7.6755 S   0  0  0  0  0  0  0  0  0  0  0  0
    4.4627   -2.3093    7.5989 O   0  0  0  0  0  0  0  0  0  0  0  0
    5.4584   -0.3735    6.4040 O   0  0  0  0  0  0  0  0  0  0  0  0
    5.5381   -1.3760    5.4493 C   0  0  0  0  0  0  0  0  0  0  0  0
   -5.8225   -3.5186    5.3392 O   0  0  0  0  0  0  0  0  0  0  0  0
   -4.3215   -4.8024    6.8711 O   0  0  0  0  0  0  0  0  0  0  0  0
   -4.2401   -5.4966    5.6733 C   0  0  0  0  0  0  0  0  0  0  0  0
   -4.7908    1.7598    6.2090 C   0  0  0  0  0  0  0  0  0  0  0  0
   -4.3331    1.0238    2.8736 C   0  0  0  0  0  0  0  0  0  0  0  0
   -3.6087   -6.3787    5.8092 H   0  0  0  0  0  0  0  0  0  0  0  0
   -3.8117   -4.8401    4.9123 H   0  0  0  0  0  0  0  0  0  0  0  0
   -5.2477   -5.7954    5.3691 H   0  0  0  0  0  0  0  0  0  0  0  0
    6.2284   -1.0601    4.6607 H   0  0  0  0  0  0  0  0  0  0  0  0
    4.5476   -1.5430    5.0153 H   0  0  0  0  0  0  0  0  0  0  0  0
    5.8954   -2.2937    5.9281 H   0  0  0  0  0  0  0  0  0  0  0  0
   -5.1050    0.2990    3.1343 H   0  0  0  0  0  0  0  0  0  0  0  0
   -4.3554    1.2035    1.8006 H   0  0  0  0  0  0  0  0  0  0  0  0
   -4.5098    1.9540    3.4142 H   0  0  0  0  0  0  0  0  0  0  0  0
   -4.8115    2.8501    6.2058 H   0  0  0  0  0  0  0  0  0  0  0  0
   -4.9223    1.4046    7.2317 H   0  0  0  0  0  0  0  0  0  0  0  0
   -5.5913    1.3872    5.5697 H   0  0  0  0  0  0  0  0  0  0  0  0
   -4.3842    5.1153    1.1216 H   0  0  0  0  0  0  0  0  0  0  0  0
   -3.0248    6.2524    1.3973 H   0  0  0  0  0  0  0  0  0  0  0  0
   -3.1909    4.8009    2.4197 H   0  0  0  0  0  0  0  0  0  0  0  0
  1  2  2  0  0  0  0
  1  6  1  0  0  0  0
  1 27  1  0  0  0  0
  2  3  1  0  0  0  0
  2 23  1  0  0  0  0
  3  4  2  0  0  0  0
  3  7  1  0  0  0  0
  4  5  1  0  0  0  0
  4 10  1  0  0  0  0
  5  6  2  0  0  0  0
  5 26  1  0  0  0  0
  6 24  1  0  0  0  0
  7  8  2  0  0  0  0
  7 11  1  0  0  0  0
  8  9  1  0  0  0  0
  8 14  1  0  0  0  0
  9 10  1  0  0  0  0
  9 17  2  0  0  0  0
 11 12  2  0  0  0  0
 11 18  1  0  0  0  0
 12 13  1  0  0  0  0
 12 21  1  0  0  0  0
 13 14  2  0  0  0  0
 14 15  1  0  0  0  0
 15 16  2  0  0  0  0
 15 29  1  0  0  0  0
 16 17  1  0  0  0  0
 16 35  1  0  0  0  0
 17 28  1  0  0  0  0
 18 19  2  0  0  0  0
 18 22  1  0  0  0  0
 19 20  1  0  0  0  0
 19 31  1  0  0  0  0
 20 21  2  0  0  0  0
 20 25  1  0  0  0  0
 21 30  1  0  0  0  0
 22 42  1  0  0  0  0
 23 43  1  0  0  0  0
 24 32  2  0  0  0  0
 24 33  1  0  0  0  0
 25 39  2  0  0  0  0
 25 40  1  0  0  0  0
 33 34  1  0  0  0  0
 34 56  1  0  0  0  0
 34 57  1  0  0  0  0
 34 58  1  0  0  0  0
 35 36  2  0  0  0  0
 35 37  1  0  0  0  0
 37 38  1  0  0  0  0
 38 47  1  0  0  0  0
 38 48  1  0  0  0  0
 38 49  1  0  0  0  0
 40 41  1  0  0  0  0
 41 44  1  0  0  0  0
 41 45  1  0  0  0  0
 41 46  1  0  0  0  0
 42 53  1  0  0  0  0
 42 54  1  0  0  0  0
 42 55  1  0  0  0  0
 43 50  1  0  0  0  0
 43 51  1  0  0  0  0
 43 52  1  0  0  0  0
 59 60  2  0  0  0  0
 59 64  1  0  0  0  0
 59 85  1  0  0  0  0
 60 61  1  0  0  0  0
 60 81  1  0  0  0  0
 61 62  2  0  0  0  0
 61 65  1  0  0  0  0
 62 63  1  0  0  0  0
 62 68  1  0  0  0  0
 63 64  2  0  0  0  0
 63 84  1  0  0  0  0
 64 82  1  0  0  0  0
 65 66  2  0  0  0  0
 65 69  1  0  0  0  0
 66 67  1  0  0  0  0
 66 72  1  0  0  0  0
 67 68  1  0  0  0  0
 67 75  2  0  0  0  0
 69 70  2  0  0  0  0
 69 76  1  0  0  0  0
 70 71  1  0  0  0  0
 70 79  1  0  0  0  0
 71 72  2  0  0  0  0
 72 73  1  0  0  0  0
 73 74  2  0  0  0  0
 73 87  1  0  0  0  0
 74 75  1  0  0  0  0
 74 93  1  0  0  0  0
 75 86  1  0  0  0  0
 76 77  2  0  0  0  0
 76 80  1  0  0  0  0
 77 78  1  0  0  0  0
 77 89  1  0  0  0  0
 78 79  2  0  0  0  0
 78 83  1  0  0  0  0
 79 88  1  0  0  0  0
 80100  1  0  0  0  0
 81101  1  0  0  0  0
 82 90  2  0  0  0  0
 82 91  1  0  0  0  0
 83 97  2  0  0  0  0
 83 98  1  0  0  0  0
 91 92  1  0  0  0  0
 92114  1  0  0  0  0
 92115  1  0  0  0  0
 92116  1  0  0  0  0
 93 94  2  0  0  0  0
 93 95  1  0  0  0  0
 95 96  1  0  0  0  0
 96105  1  0  0  0  0
 96106  1  0  0  0  0
 96107  1  0  0  0  0
 98 99  1  0  0  0  0
 99102  1  0  0  0  0
 99103  1  0  0  0  0
 99104  1  0  0  0  0
100111  1  0  0  0  0
100112  1  0  0  0  0
100113  1  0  0  0  0
101108  1  0  0  0  0
101109  1  0  0  0  0
101110  1  0  0  0  0
M  END
