energy: -110.212672039439 gnorm: 0.000282376268 xtb: 6.7.1 (edcfbbe)_energy: -110.212672039439 gnorm: 0.000282376268 xtb: 6.7.1 (edcfbbe)
 OpenBabel03042512273D

116124  0  0  0  0  0  0  0  0999 V2000
   -2.0933    1.5298   -2.6752 C   0  0  0  0  0  0  0  0  0  0  0  0
   -1.8735    0.6810   -1.6087 C   0  0  0  0  0  0  0  0  0  0  0  0
   -1.0442    1.1124   -0.5393 C   0  0  0  0  0  0  0  0  0  0  0  0
   -0.2451    2.2875   -0.7159 C   0  0  0  0  0  0  0  0  0  0  0  0
   -0.5190    3.1441   -1.8094 C   0  0  0  0  0  0  0  0  0  0  0  0
   -1.4515    2.7715   -2.7284 C   0  0  0  0  0  0  0  0  0  0  0  0
   -0.8744    0.4017    0.6874 C   0  0  0  0  0  0  0  0  0  0  0  0
    0.3193    0.6361    1.3881 C   0  0  0  0  0  0  0  0  0  0  0  0
    1.1391    1.7483    1.0320 C   0  0  0  0  0  0  0  0  0  0  0  0
    0.7814    2.6006    0.0753 N   0  0  0  0  0  0  0  0  0  0  0  0
   -1.7920   -0.5184    1.2802 C   0  0  0  0  0  0  0  0  0  0  0  0
   -1.2556   -1.4266    2.2492 C   0  0  0  0  0  0  0  0  0  0  0  0
   -0.0339   -1.3021    2.7719 N   0  0  0  0  0  0  0  0  0  0  0  0
    0.6978   -0.2405    2.4488 C   0  0  0  0  0  0  0  0  0  0  0  0
    1.9148    0.0089    3.1217 C   0  0  0  0  0  0  0  0  0  0  0  0
    2.6844    1.0982    2.7731 C   0  0  0  0  0  0  0  0  0  0  0  0
    2.3248    1.9728    1.7665 C   0  0  0  0  0  0  0  0  0  0  0  0
   -3.1917   -0.5187    1.0455 C   0  0  0  0  0  0  0  0  0  0  0  0
   -3.9566   -1.5514    1.5516 C   0  0  0  0  0  0  0  0  0  0  0  0
   -3.3729   -2.5432    2.3403 C   0  0  0  0  0  0  0  0  0  0  0  0
   -2.0670   -2.4824    2.7289 C   0  0  0  0  0  0  0  0  0  0  0  0
   -3.7030    0.5522    0.3916 O   0  0  0  0  0  0  0  0  0  0  0  0
   -2.3391   -0.5908   -1.5398 O   0  0  0  0  0  0  0  0  0  0  0  0
   -1.9139    3.8797   -4.1141 S   0  0  2  0  0  0  0  0  0  0  0  0
   -4.4269   -3.9398    2.9011 S   0  0  1  0  0  0  0  0  0  0  0  0
    0.0371    4.0611   -1.9192 H   0  0  0  0  0  0  0  0  0  0  0  0
   -2.7554    1.2665   -3.4843 H   0  0  0  0  0  0  0  0  0  0  0  0
    2.9422    2.8201    1.5150 H   0  0  0  0  0  0  0  0  0  0  0  0
    2.2324   -0.6491    3.9158 H   0  0  0  0  0  0  0  0  0  0  0  0
   -1.6383   -3.1954    3.4132 H   0  0  0  0  0  0  0  0  0  0  0  0
   -5.0170   -1.6301    1.3688 H   0  0  0  0  0  0  0  0  0  0  0  0
   -1.0562    5.0338   -3.9557 O   0  0  0  0  0  0  0  0  0  0  0  0
   -3.4250    4.2632   -3.4932 O   0  0  0  0  0  0  0  0  0  0  0  0
   -3.4378    5.1401   -2.3967 C   0  0  0  0  0  0  0  0  0  0  0  0
    4.2779    1.3998    3.6497 S   0  0  1  0  0  0  0  0  0  0  0  0
    4.3137    0.3714    4.6686 O   0  0  0  0  0  0  0  0  0  0  0  0
    5.2564    0.9082    2.3863 O   0  0  0  0  0  0  0  0  0  0  0  0
    5.3403   -0.4745    2.1574 C   0  0  0  0  0  0  0  0  0  0  0  0
   -5.7143   -3.6509    2.2953 O   0  0  0  0  0  0  0  0  0  0  0  0
   -3.6702   -5.1045    1.9719 O   0  0  0  0  0  0  0  0  0  0  0  0
   -3.8719   -5.0274    0.5856 C   0  0  0  0  0  0  0  0  0  0  0  0
   -5.0974    0.6288    0.2099 C   0  0  0  0  0  0  0  0  0  0  0  0
   -3.1255   -1.0810   -2.5988 C   0  0  0  0  0  0  0  0  0  0  0  0
   -3.7352   -6.0276    0.1770 H   0  0  0  0  0  0  0  0  0  0  0  0
   -3.1535   -4.3387    0.1282 H   0  0  0  0  0  0  0  0  0  0  0  0
   -4.8911   -4.6850    0.3756 H   0  0  0  0  0  0  0  0  0  0  0  0
    6.3175   -0.6777    1.7217 H   0  0  0  0  0  0  0  0  0  0  0  0
    4.5527   -0.8014    1.4711 H   0  0  0  0  0  0  0  0  0  0  0  0
    5.2440   -1.0158    3.1046 H   0  0  0  0  0  0  0  0  0  0  0  0
   -3.3789   -2.1048   -2.3264 H   0  0  0  0  0  0  0  0  0  0  0  0
   -2.5694   -1.0846   -3.5416 H   0  0  0  0  0  0  0  0  0  0  0  0
   -4.0447   -0.4999   -2.7217 H   0  0  0  0  0  0  0  0  0  0  0  0
   -5.2724    1.5663   -0.3162 H   0  0  0  0  0  0  0  0  0  0  0  0
   -5.6247    0.6450    1.1684 H   0  0  0  0  0  0  0  0  0  0  0  0
   -5.4722   -0.2031   -0.3941 H   0  0  0  0  0  0  0  0  0  0  0  0
   -4.3847    5.6780   -2.4155 H   0  0  0  0  0  0  0  0  0  0  0  0
   -2.6119    5.8540   -2.4806 H   0  0  0  0  0  0  0  0  0  0  0  0
   -3.3418    4.5864   -1.4569 H   0  0  0  0  0  0  0  0  0  0  0  0
   -2.0933    1.5298    1.3248 C   0  0  0  0  0  0  0  0  0  0  0  0
   -1.8735    0.6810    2.3913 C   0  0  0  0  0  0  0  0  0  0  0  0
   -1.0442    1.1124    3.4607 C   0  0  0  0  0  0  0  0  0  0  0  0
   -0.2451    2.2875    3.2841 C   0  0  0  0  0  0  0  0  0  0  0  0
   -0.5190    3.1441    2.1906 C   0  0  0  0  0  0  0  0  0  0  0  0
   -1.4515    2.7715    1.2716 C   0  0  0  0  0  0  0  0  0  0  0  0
   -0.8744    0.4017    4.6874 C   0  0  0  0  0  0  0  0  0  0  0  0
    0.3193    0.6361    5.3881 C   0  0  0  0  0  0  0  0  0  0  0  0
    1.1391    1.7483    5.0320 C   0  0  0  0  0  0  0  0  0  0  0  0
    0.7814    2.6006    4.0753 N   0  0  0  0  0  0  0  0  0  0  0  0
   -1.7920   -0.5184    5.2802 C   0  0  0  0  0  0  0  0  0  0  0  0
   -1.2556   -1.4266    6.2492 C   0  0  0  0  0  0  0  0  0  0  0  0
   -0.0339   -1.3021    6.7719 N   0  0  0  0  0  0  0  0  0  0  0  0
    0.6978   -0.2405    6.4488 C   0  0  0  0  0  0  0  0  0  0  0  0
    1.9148    0.0089    7.1217 C   0  0  0  0  0  0  0  0  0  0  0  0
    2.6844    1.0982    6.7731 C   0  0  0  0  0  0  0  0  0  0  0  0
    2.3248    1.9728    5.7665 C   0  0  0  0  0  0  0  0  0  0  0  0
   -3.1917   -0.5187    5.0455 C   0  0  0  0  0  0  0  0  0  0  0  0
   -3.9566   -1.5514    5.5516 C   0  0  0  0  0  0  0  0  0  0  0  0
   -3.3729   -2.5432    6.3403 C   0  0  0  0  0  0  0  0  0  0  0  0
   -2.0670   -2.4824    6.7289 C   0  0  0  0  0  0  0  0  0  0  0  0
   -3.7030    0.5522    4.3916 O   0  0  0  0  0  0  0  0  0  0  0  0
   -2.3391   -0.5908    2.4602 O   0  0  0  0  0  0  0  0  0  0  0  0
   -1.9139    3.8797   -0.1141 S   0  0  2  0  0  0  0  0  0  0  0  0
   -4.4269   -3.9398    6.9011 S   0  0  1  0  0  0  0  0  0  0  0  0
    0.0371    4.0611    2.0808 H   0  0  0  0  0  0  0  0  0  0  0  0
   -2.7554    1.2665    0.5157 H   0  0  0  0  0  0  0  0  0  0  0  0
    2.9422    2.8201    5.5150 H   0  0  0  0  0  0  0  0  0  0  0  0
    2.2324   -0.6491    7.9158 H   0  0  0  0  0  0  0  0  0  0  0  0
   -1.6383   -3.1954    7.4132 H   0  0  0  0  0  0  0  0  0  0  0  0
   -5.0170   -1.6301    5.3688 H   0  0  0  0  0  0  0  0  0  0  0  0
   -1.0562    5.0338    0.0443 O   0  0  0  0  0  0  0  0  0  0  0  0
   -3.4250    4.2632    0.5068 O   0  0  0  0  0  0  0  0  0  0  0  0
   -3.4378    5.1401    1.6033 C   0  0  0  0  0  0  0  0  0  0  0  0
    4.2779    1.3998    7.6497 S   0  0  1  0  0  0  0  0  0  0  0  0
    4.3137    0.3714    8.6686 O   0  0  0  0  0  0  0  0  0  0  0  0
    5.2564    0.9082    6.3863 O   0  0  0  0  0  0  0  0  0  0  0  0
    5.3403   -0.4745    6.1574 C   0  0  0  0  0  0  0  0  0  0  0  0
   -5.7143   -3.6509    6.2953 O   0  0  0  0  0  0  0  0  0  0  0  0
   -3.6702   -5.1045    5.9719 O   0  0  0  0  0  0  0  0  0  0  0  0
   -3.8719   -5.0274    4.5856 C   0  0  0  0  0  0  0  0  0  0  0  0
   -5.0974    0.6288    4.2099 C   0  0  0  0  0  0  0  0  0  0  0  0
   -3.1255   -1.0810    1.4012 C   0  0  0  0  0  0  0  0  0  0  0  0
   -3.7352   -6.0276    4.1770 H   0  0  0  0  0  0  0  0  0  0  0  0
   -3.1535   -4.3387    4.1282 H   0  0  0  0  0  0  0  0  0  0  0  0
   -4.8911   -4.6850    4.3756 H   0  0  0  0  0  0  0  0  0  0  0  0
    6.3175   -0.6777    5.7217 H   0  0  0  0  0  0  0  0  0  0  0  0
    4.5527   -0.8014    5.4711 H   0  0  0  0  0  0  0  0  0  0  0  0
    5.2440   -1.0158    7.1046 H   0  0  0  0  0  0  0  0  0  0  0  0
   -3.3789   -2.1048    1.6736 H   0  0  0  0  0  0  0  0  0  0  0  0
   -2.5694   -1.0846    0.4584 H   0  0  0  0  0  0  0  0  0  0  0  0
   -4.0447   -0.4999    1.2783 H   0  0  0  0  0  0  0  0  0  0  0  0
   -5.2724    1.5663    3.6838 H   0  0  0  0  0  0  0  0  0  0  0  0
   -5.6247    0.6450    5.1684 H   0  0  0  0  0  0  0  0  0  0  0  0
   -5.4722   -0.2031    3.6059 H   0  0  0  0  0  0  0  0  0  0  0  0
   -4.3847    5.6780    1.5845 H   0  0  0  0  0  0  0  0  0  0  0  0
   -2.6119    5.8540    1.5194 H   0  0  0  0  0  0  0  0  0  0  0  0
   -3.3418    4.5864    2.5431 H   0  0  0  0  0  0  0  0  0  0  0  0
  1  2  2  0  0  0  0
  1  6  1  0  0  0  0
  1 27  1  0  0  0  0
  2  3  1  0  0  0  0
  2 23  1  0  0  0  0
  3  4  2  0  0  0  0
  3  7  1  0  0  0  0
  4  5  1  0  0  0  0
  4 10  1  0  0  0  0
  5  6  2  0  0  0  0
  5 26  1  0  0  0  0
  6 24  1  0  0  0  0
  7  8  2  0  0  0  0
  7 11  1  0  0  0  0
  8  9  1  0  0  0  0
  8 14  1  0  0  0  0
  9 10  1  0  0  0  0
  9 17  2  0  0  0  0
 11 12  2  0  0  0  0
 11 18  1  0  0  0  0
 12 13  1  0  0  0  0
 12 21  1  0  0  0  0
 13 14  2  0  0  0  0
 14 15  1  0  0  0  0
 15 16  2  0  0  0  0
 15 29  1  0  0  0  0
 16 17  1  0  0  0  0
 16 35  1  0  0  0  0
 17 28  1  0  0  0  0
 18 19  2  0  0  0  0
 18 22  1  0  0  0  0
 19 20  1  0  0  0  0
 19 31  1  0  0  0  0
 20 21  2  0  0  0  0
 20 25  1  0  0  0  0
 21 30  1  0  0  0  0
 22 42  1  0  0  0  0
 23 43  1  0  0  0  0
 24 32  2  1  0  0  0
 24 33  1  0  0  0  0
 25 39  2  6  0  0  0
 25 40  1  0  0  0  0
 33 34  1  0  0  0  0
 34 56  1  0  0  0  0
 34 57  1  0  0  0  0
 34 58  1  0  0  0  0
 35 36  2  1  0  0  0
 35 37  1  0  0  0  0
 37 38  1  0  0  0  0
 38 47  1  0  0  0  0
 38 48  1  0  0  0  0
 38 49  1  0  0  0  0
 40 41  1  0  0  0  0
 41 44  1  0  0  0  0
 41 45  1  0  0  0  0
 41 46  1  0  0  0  0
 42 53  1  0  0  0  0
 42 54  1  0  0  0  0
 42 55  1  0  0  0  0
 43 50  1  0  0  0  0
 43 51  1  0  0  0  0
 43 52  1  0  0  0  0
 59 60  2  0  0  0  0
 59 64  1  0  0  0  0
 59 85  1  0  0  0  0
 60 61  1  0  0  0  0
 60 81  1  0  0  0  0
 61 62  2  0  0  0  0
 61 65  1  0  0  0  0
 62 63  1  0  0  0  0
 62 68  1  0  0  0  0
 63 64  2  0  0  0  0
 63 84  1  0  0  0  0
 64 82  1  0  0  0  0
 65 66  2  0  0  0  0
 65 69  1  0  0  0  0
 66 67  1  0  0  0  0
 66 72  1  0  0  0  0
 67 68  1  0  0  0  0
 67 75  2  0  0  0  0
 69 70  2  0  0  0  0
 69 76  1  0  0  0  0
 70 71  1  0  0  0  0
 70 79  1  0  0  0  0
 71 72  2  0  0  0  0
 72 73  1  0  0  0  0
 73 74  2  0  0  0  0
 73 87  1  0  0  0  0
 74 75  1  0  0  0  0
 74 93  1  0  0  0  0
 75 86  1  0  0  0  0
 76 77  2  0  0  0  0
 76 80  1  0  0  0  0
 77 78  1  0  0  0  0
 77 89  1  0  0  0  0
 78 79  2  0  0  0  0
 78 83  1  0  0  0  0
 79 88  1  0  0  0  0
 80100  1  0  0  0  0
 81101  1  0  0  0  0
 82 90  2  1  0  0  0
 82 91  1  0  0  0  0
 83 97  2  6  0  0  0
 83 98  1  0  0  0  0
 91 92  1  0  0  0  0
 92114  1  0  0  0  0
 92115  1  0  0  0  0
 92116  1  0  0  0  0
 93 94  2  1  0  0  0
 93 95  1  0  0  0  0
 95 96  1  0  0  0  0
 96105  1  0  0  0  0
 96106  1  0  0  0  0
 96107  1  0  0  0  0
 98 99  1  0  0  0  0
 99102  1  0  0  0  0
 99103  1  0  0  0  0
 99104  1  0  0  0  0
100111  1  0  0  0  0
100112  1  0  0  0  0
100113  1  0  0  0  0
101108  1  0  0  0  0
101109  1  0  0  0  0
101110  1  0  0  0  0
M  END
