
 OpenBabel10312413453D

101112  0  0  0  0  0  0  0  0999 V2000
   -0.4936    4.1273    0.3748 C   0  0  0  0  0  0  0  0  0  0  0  0
    0.3629    3.0473    0.9680 C   0  0  0  0  0  0  0  0  0  0  0  0
    1.7484    2.8205    0.4327 C   0  0  0  0  0  0  0  0  0  0  0  0
    2.2975    3.7792   -0.5885 C   0  0  0  0  0  0  0  0  0  0  0  0
    1.4203    4.8233   -1.2123 C   0  0  0  0  0  0  0  0  0  0  0  0
    0.0108    4.9969   -0.7362 C   0  0  0  0  0  0  0  0  0  0  0  0
    2.7078    1.6779    0.9853 C   0  0  0  0  0  0  0  0  0  0  0  0
    4.2537    1.9404    0.7244 C   0  3  0  0  0  0  0  0  0  0  0  0
    4.7290    3.0026   -0.3565 C   0  0  0  0  0  0  0  0  0  0  0  0
    3.7810    3.8085   -0.9941 N   0  0  0  0  0  0  0  0  0  0  0  0
    2.3787    0.4406    1.6632 C   0  0  0  0  0  0  0  0  0  0  0  0
    3.4769   -0.2274    2.6079 C   0  0  0  0  0  0  0  0  0  0  0  0
    4.8429    0.0647    2.5268 N   0  0  0  0  0  0  0  0  0  0  0  0
    5.3496    1.0777    1.4833 C   0  0  0  0  0  0  0  0  0  0  0  0
    6.7513    1.2443    1.1727 C   0  0  0  0  0  0  0  0  0  0  0  0
    7.2221    2.2670    0.0448 C   0  0  0  0  0  0  0  0  0  0  0  0
    6.2851    3.0983   -0.6789 C   0  0  0  0  0  0  0  0  0  0  0  0
    1.0309   -0.3893    1.4650 C   0  0  0  0  0  0  0  0  0  0  0  0
    0.7839   -1.5439    2.3000 C   0  0  0  0  0  0  0  0  0  0  0  0
    1.7218   -1.9393    3.5246 C   0  0  0  0  0  0  0  0  0  0  0  0
    3.0060   -1.2995    3.6848 C   0  0  0  0  0  0  0  0  0  0  0  0
   -0.2160    2.2039    2.0762 O   0  0  0  0  0  0  0  0  0  0  0  0
    0.0437   -0.1113    0.3544 O   0  0  0  0  0  0  0  0  0  0  0  0
   -0.9401    6.0937   -1.3819 C   0  0  0  0  0  0  0  0  0  0  0  0
    1.2822   -3.0650    4.5616 C   0  0  0  0  0  0  0  0  0  0  0  0
    8.7742    2.3619   -0.2966 C   0  0  0  0  0  0  0  0  0  0  0  0
   -2.2942   -2.3334    1.6138 C   0  0  0  0  0  0  0  0  0  0  0  0
   -2.8814   -1.0371    1.1410 C   0  0  0  0  0  0  0  0  0  0  0  0
   -3.7673   -1.0182   -0.0749 C   0  0  0  0  0  0  0  0  0  0  0  0
   -3.8803   -2.2653   -0.9093 C   0  0  0  0  0  0  0  0  0  0  0  0
   -3.1050   -3.4967   -0.5458 C   0  0  0  0  0  0  0  0  0  0  0  0
   -2.3635   -3.5596    0.7548 C   0  0  0  0  0  0  0  0  0  0  0  0
   -4.7278    0.1935   -0.4532 C   0  0  0  0  0  0  0  0  0  0  0  0
   -5.8997   -0.1312   -1.4755 C   0  0  2  0  0  0  0  0  0  0  0  0
   -5.8310   -1.4452   -2.3637 C   0  0  0  0  0  0  0  0  0  0  0  0
   -4.8398   -2.3971   -2.1047 N   0  0  0  0  0  0  0  0  0  0  0  0
   -4.7122    1.5557    0.0317 C   0  0  0  0  0  0  0  0  0  0  0  0
   -6.0587    2.4064    0.0771 C   0  0  0  0  0  0  0  0  0  0  0  0
   -7.1598    2.1131   -0.7353 N   0  0  0  0  0  0  0  0  0  0  0  0
   -7.1018    0.8896   -1.6698 C   0  0  0  0  0  0  0  0  0  0  0  0
   -8.0857    0.6427   -2.7000 C   0  0  0  0  0  0  0  0  0  0  0  0
   -7.9601   -0.6187   -3.6668 C   0  0  0  0  0  0  0  0  0  0  0  0
   -6.9157   -1.6090   -3.5172 C   0  0  0  0  0  0  0  0  0  0  0  0
   -3.3916    2.3095    0.4994 C   0  0  0  0  0  0  0  0  0  0  0  0
   -3.5126    3.3489    1.4974 C   0  0  0  0  0  0  0  0  0  0  0  0
   -4.9258    4.0043    1.8299 C   0  0  0  0  0  0  0  0  0  0  0  0
   -6.1218    3.6060    1.1216 C   0  0  0  0  0  0  0  0  0  0  0  0
   -2.5702    0.1778    1.9784 O   0  0  0  0  0  0  0  0  0  0  0  0
   -2.0683    2.0045   -0.1641 O   0  0  0  0  0  0  0  0  0  0  0  0
   -1.6998   -4.9211    1.2337 C   0  0  0  0  0  0  0  0  0  0  0  0
   -4.9962    5.1690    2.9133 C   0  0  0  0  0  0  0  0  0  0  0  0
   -9.0163   -0.7953   -4.8450 C   0  0  0  0  0  0  0  0  0  0  0  0
   -1.1972    1.0097    1.0982 B   0  5  1  0  0  0  0  0  0  0  0  0
    9.2362    3.3277   -1.1879 O   0  0  0  0  0  0  0  0  0  0  0  0
    9.7426    1.3981    0.3486 O   0  0  0  0  0  0  0  0  0  0  0  0
   10.0898    2.0467    1.6993 C   0  0  0  0  0  0  0  0  0  0  0  0
    0.3059   -4.1399    4.1448 O   0  0  0  0  0  0  0  0  0  0  0  0
    1.2137   -5.2876    3.6704 C   0  0  0  0  0  0  0  0  0  0  0  0
    1.8319   -3.0833    5.8415 O   0  0  0  0  0  0  0  0  0  0  0  0
   -1.1910   -5.0242    2.5262 O   0  0  0  0  0  0  0  0  0  0  0  0
   -1.6508   -6.1106    0.3035 O   0  0  0  0  0  0  0  0  0  0  0  0
   -2.9777   -6.8436    0.5640 C   0  0  0  0  0  0  0  0  0  0  0  0
  -10.0898    0.0848   -4.9624 O   0  0  0  0  0  0  0  0  0  0  0  0
   -8.8449   -1.9178   -5.8415 O   0  0  0  0  0  0  0  0  0  0  0  0
   -9.5240   -3.1277   -5.1776 C   0  0  0  0  0  0  0  0  0  0  0  0
   -6.2201    5.7485    3.2406 O   0  0  0  0  0  0  0  0  0  0  0  0
   -3.7257    5.6569    3.5693 O   0  0  0  0  0  0  0  0  0  0  0  0
   -3.1536    6.6756    2.5688 C   0  0  0  0  0  0  0  0  0  0  0  0
   -0.5064    6.8436   -2.4728 O   0  0  0  0  0  0  0  0  0  0  0  0
   -2.3205    6.3146   -0.8089 O   0  0  0  0  0  0  0  0  0  0  0  0
   -3.1911    5.2343   -1.4731 C   0  0  0  0  0  0  0  0  0  0  0  0
   -9.4485   -3.9778   -5.8231 H   0  0  0  0  0  0  0  0  0  0  0  0
  -10.5554   -2.9050   -5.0003 H   0  0  0  0  0  0  0  0  0  0  0  0
   -9.0404   -3.3421   -4.2475 H   0  0  0  0  0  0  0  0  0  0  0  0
   -2.2406    7.0795    2.9538 H   0  0  0  0  0  0  0  0  0  0  0  0
   -3.8595    7.4663    2.4220 H   0  0  0  0  0  0  0  0  0  0  0  0
   -2.9629    6.1898    1.6348 H   0  0  0  0  0  0  0  0  0  0  0  0
   -4.1972    5.3197   -1.1191 H   0  0  0  0  0  0  0  0  0  0  0  0
   -2.8075    4.2662   -1.2273 H   0  0  0  0  0  0  0  0  0  0  0  0
   -3.1742    5.3657   -2.5349 H   0  0  0  0  0  0  0  0  0  0  0  0
   -3.0337   -7.7120   -0.0587 H   0  0  0  0  0  0  0  0  0  0  0  0
   -3.7956   -6.1910    0.3404 H   0  0  0  0  0  0  0  0  0  0  0  0
   -3.0268   -7.1379    1.5916 H   0  0  0  0  0  0  0  0  0  0  0  0
    0.6099   -6.1104    3.3491 H   0  0  0  0  0  0  0  0  0  0  0  0
    1.8435   -5.6007    4.4767 H   0  0  0  0  0  0  0  0  0  0  0  0
    1.8191   -4.9498    2.8553 H   0  0  0  0  0  0  0  0  0  0  0  0
   10.7792    1.4223    2.2281 H   0  0  0  0  0  0  0  0  0  0  0  0
    9.1978    2.1636    2.2786 H   0  0  0  0  0  0  0  0  0  0  0  0
   10.5338    3.0056    1.5309 H   0  0  0  0  0  0  0  0  0  0  0  0
   -9.3355    0.8982   -2.6079 H   0  0  0  0  0  0  0  0  0  0  0  0
   -7.3332   -2.9059   -4.1014 H   0  0  0  0  0  0  0  0  0  0  0  0
   -7.3050    3.8474    1.2085 H   0  0  0  0  0  0  0  0  0  0  0  0
   -3.2286   -4.5398   -1.0120 H   0  0  0  0  0  0  0  0  0  0  0  0
   -2.3658    3.8294    1.7310 H   0  0  0  0  0  0  0  0  0  0  0  0
   -1.5479   -1.5985    1.9537 H   0  0  0  0  0  0  0  0  0  0  0  0
   -1.5193    4.0263    0.3330 H   0  0  0  0  0  0  0  0  0  0  0  0
   -0.4191   -1.6365    2.2362 H   0  0  0  0  0  0  0  0  0  0  0  0
    4.3426   -2.1682    4.3109 H   0  0  0  0  0  0  0  0  0  0  0  0
    2.4475    6.0338   -1.8042 H   0  0  0  0  0  0  0  0  0  0  0  0
    6.7483    4.1857   -1.2553 H   0  0  0  0  0  0  0  0  0  0  0  0
    7.7778    0.5061    1.6941 H   0  0  0  0  0  0  0  0  0  0  0  0
  1  2  2  0  0  0  0
  1 96  1  0  0  0  0
  2  3  1  0  0  0  0
  3  4  2  0  0  0  0
  3  7  1  0  0  0  0
  4  5  1  0  0  0  0
  5  6  2  0  0  0  0
  5 99  1  0  0  0  0
  6  1  1  0  0  0  0
  6 24  1  0  0  0  0
  7  8  1  0  0  0  0
  7 11  2  0  0  0  0
  8  9  1  0  0  0  0
  9 10  2  0  0  0  0
 10  4  1  0  0  0  0
 11 12  1  0  0  0  0
 11 18  1  0  0  0  0
 12 13  2  0  0  0  0
 13 14  1  0  0  0  0
 14  8  1  0  0  0  0
 14 15  2  0  0  0  0
 15 16  1  0  0  0  0
 15101  1  0  0  0  0
 16 17  2  0  0  0  0
 16 26  1  0  0  0  0
 17  9  1  0  0  0  0
 17100  1  0  0  0  0
 18 19  2  0  0  0  0
 19 20  1  0  0  0  0
 19 97  1  0  0  0  0
 20 21  2  0  0  0  0
 20 25  1  0  0  0  0
 21 12  1  0  0  0  0
 21 98  1  0  0  0  0
 22  2  1  0  0  0  0
 23 18  1  0  0  0  0
 24 69  2  0  0  0  0
 24 70  1  0  0  0  0
 25 57  1  0  0  0  0
 25 59  2  0  0  0  0
 26 54  2  0  0  0  0
 26 55  1  0  0  0  0
 27 28  2  0  0  0  0
 27 95  1  0  0  0  0
 28 29  1  0  0  0  0
 28 48  1  0  0  0  0
 29 30  2  0  0  0  0
 29 33  1  0  0  0  0
 30 31  1  0  0  0  0
 31 32  2  0  0  0  0
 31 93  1  0  0  0  0
 32 27  1  0  0  0  0
 32 50  1  0  0  0  0
 33 37  2  0  0  0  0
 34 33  1  6  0  0  0
 34 35  1  0  0  0  0
 35 36  2  0  0  0  0
 36 30  1  0  0  0  0
 37 38  1  0  0  0  0
 37 44  1  0  0  0  0
 38 39  2  0  0  0  0
 39 40  1  0  0  0  0
 40 34  1  0  0  0  0
 40 41  2  0  0  0  0
 41 42  1  0  0  0  0
 41 90  1  0  0  0  0
 42 43  2  0  0  0  0
 42 52  1  0  0  0  0
 43 35  1  0  0  0  0
 43 91  1  0  0  0  0
 44 45  2  0  0  0  0
 44 49  1  0  0  0  0
 45 46  1  0  0  0  0
 45 94  1  0  0  0  0
 46 47  2  0  0  0  0
 46 51  1  0  0  0  0
 47 38  1  0  0  0  0
 47 92  1  0  0  0  0
 50 60  2  0  0  0  0
 50 61  1  0  0  0  0
 51 66  2  0  0  0  0
 51 67  1  0  0  0  0
 52 63  2  0  0  0  0
 52 64  1  0  0  0  0
 53 49  1  6  0  0  0
 53 22  1  0  0  0  0
 53 48  1  0  0  0  0
 53 23  1  0  0  0  0
 55 56  1  0  0  0  0
 56 87  1  0  0  0  0
 56 88  1  0  0  0  0
 56 89  1  0  0  0  0
 57 58  1  0  0  0  0
 58 84  1  0  0  0  0
 58 85  1  0  0  0  0
 58 86  1  0  0  0  0
 61 62  1  0  0  0  0
 62 81  1  0  0  0  0
 62 82  1  0  0  0  0
 62 83  1  0  0  0  0
 64 65  1  0  0  0  0
 65 72  1  0  0  0  0
 65 73  1  0  0  0  0
 65 74  1  0  0  0  0
 67 68  1  0  0  0  0
 68 75  1  0  0  0  0
 68 76  1  0  0  0  0
 68 77  1  0  0  0  0
 70 71  1  0  0  0  0
 71 78  1  0  0  0  0
 71 79  1  0  0  0  0
 71 80  1  0  0  0  0
M  CHG  2   8   1  53  -1
M  END
