 energy: -42.116519851147 gnorm: 0.001002507360 xtb: 6.7.1 (edcfbbe)
          12102413013D

202224  0     0  0            999 V2000
   -0.3128    4.5042    0.4313 C   0  0  0  0  0  0  0  0  0  0  0  0
    0.1569    3.4675    1.2299 C   0  0  0  0  0  0  0  0  0  0  0  0
    1.5675    3.2929    1.4084 C   0  0  0  0  0  0  0  0  0  0  0  0
    2.4029    4.3998    1.0757 C   0  0  0  0  0  0  0  0  0  0  0  0
    1.8669    5.4591    0.3233 C   0  0  0  0  0  0  0  0  0  0  0  0
    0.5380    5.4995   -0.0247 C   0  0  0  0  0  0  0  0  0  0  0  0
    2.1582    2.1303    2.0123 C   0  0  0  0  0  0  0  0  0  0  0  0
    3.4346    2.3402    2.5627 C   0  0  0  0  0  0  0  0  0  0  0  0
    4.1229    3.5710    2.3439 C   0  0  0  0  0  0  0  0  0  0  0  0
    3.6620    4.5388    1.5341 N   0  0  0  0  0  0  0  0  0  0  0  0
    1.6881    0.7669    1.9821 C   0  0  0  0  0  0  0  0  0  0  0  0
    2.4790   -0.2072    2.6724 C   0  0  0  0  0  0  0  0  0  0  0  0
    3.5459    0.0881    3.4501 N   0  0  0  0  0  0  0  0  0  0  0  0
    4.0603    1.3214    3.3347 C   0  0  0  0  0  0  0  0  0  0  0  0
    5.2887    1.5920    3.9469 C   0  0  0  0  0  0  0  0  0  0  0  0
    5.9305    2.8010    3.7672 C   0  0  0  0  0  0  0  0  0  0  0  0
    5.3620    3.7654    2.9608 C   0  0  0  0  0  0  0  0  0  0  0  0
    0.6508    0.2650    1.1119 C   0  0  0  0  0  0  0  0  0  0  0  0
    0.5869   -1.0990    0.8487 C   0  0  0  0  0  0  0  0  0  0  0  0
    1.3736   -2.0235    1.5087 C   0  0  0  0  0  0  0  0  0  0  0  0
    2.2593   -1.5796    2.4539 C   0  0  0  0  0  0  0  0  0  0  0  0
   -0.7426    2.7056    1.9433 O   0  0  0  0  0  0  0  0  0  0  0  0
   -0.3140    0.9954    0.4442 O   0  0  0  0  0  0  0  0  0  0  0  0
   -0.0103    6.6753   -0.7349 C   0  0  0  0  0  0  0  0  0  0  0  0
    1.2738   -3.4577    1.1632 C   0  0  0  0  0  0  0  0  0  0  0  0
    7.2190    3.0813    4.4320 C   0  0  0  0  0  0  0  0  0  0  0  0
   -1.8999   -1.3842    2.3249 C   0  0  0  0  0  0  0  0  0  0  0  0
   -2.5498   -0.4206    1.5732 C   0  0  0  0  0  0  0  0  0  0  0  0
   -3.4359   -0.8043    0.5154 C   0  0  0  0  0  0  0  0  0  0  0  0
   -3.5001   -2.1974    0.2027 C   0  0  0  0  0  0  0  0  0  0  0  0
   -2.7471   -3.1216    0.9543 C   0  0  0  0  0  0  0  0  0  0  0  0
   -1.9894   -2.7272    2.0284 C   0  0  0  0  0  0  0  0  0  0  0  0
   -4.4022    0.0754   -0.0855 C   0  0  0  0  0  0  0  0  0  0  0  0
   -5.3982   -0.5456   -0.8566 C   0  0  0  0  0  0  0  0  0  0  0  0
   -5.2639   -1.9104   -1.2438 C   0  0  0  0  0  0  0  0  0  0  0  0
   -4.3140   -2.7165   -0.7424 N   0  0  0  0  0  0  0  0  0  0  0  0
   -4.6304    1.4744    0.1890 C   0  0  0  0  0  0  0  0  0  0  0  0
   -5.9697    1.9600    0.0711 C   0  0  0  0  0  0  0  0  0  0  0  0
   -6.9170    1.3481   -0.6654 N   0  0  0  0  0  0  0  0  0  0  0  0
   -6.5821    0.1688   -1.2166 C   0  0  0  0  0  0  0  0  0  0  0  0
   -7.4952   -0.4410   -2.0829 C   0  0  0  0  0  0  0  0  0  0  0  0
   -7.3022   -1.7255   -2.5509 C   0  0  0  0  0  0  0  0  0  0  0  0
   -6.2127   -2.4562   -2.1160 C   0  0  0  0  0  0  0  0  0  0  0  0
   -3.6281    2.4477    0.5530 C   0  0  0  0  0  0  0  0  0  0  0  0
   -4.0221    3.6011    1.2295 C   0  0  0  0  0  0  0  0  0  0  0  0
   -5.3657    3.9321    1.3484 C   0  0  0  0  0  0  0  0  0  0  0  0
   -6.3093    3.1605    0.7138 C   0  0  0  0  0  0  0  0  0  0  0  0
   -2.2611    0.8659    1.9508 O   0  0  0  0  0  0  0  0  0  0  0  0
   -2.3098    2.3131    0.1526 O   0  0  0  0  0  0  0  0  0  0  0  0
   -1.2440   -3.6573    2.8984 C   0  0  0  0  0  0  0  0  0  0  0  0
   -5.8107    5.1163    2.1112 C   0  0  0  0  0  0  0  0  0  0  0  0
   -8.3032   -2.3293   -3.4574 C   0  0  0  0  0  0  0  0  0  0  0  0
   -1.4035    1.7165    1.1241 B   0  0  0  0  0  0  0  0  0  0  0  0
    7.7722    4.1461    4.2367 O   0  0  0  0  0  0  0  0  0  0  0  0
    7.7111    2.1129    5.2565 O   0  0  0  0  0  0  0  0  0  0  0  0
    8.8942    2.5651    5.8297 C   0  0  0  0  0  0  0  0  0  0  0  0
    0.4496   -3.7513    0.1147 O   0  0  0  0  0  0  0  0  0  0  0  0
    0.4333   -5.1229   -0.1094 C   0  0  0  0  0  0  0  0  0  0  0  0
    1.9069   -4.2860    1.7871 O   0  0  0  0  0  0  0  0  0  0  0  0
   -0.6600   -3.1875    3.8560 O   0  0  0  0  0  0  0  0  0  0  0  0
   -1.2295   -4.9853    2.5921 O   0  0  0  0  0  0  0  0  0  0  0  0
   -0.3343   -5.6177    3.4503 C   0  0  0  0  0  0  0  0  0  0  0  0
   -9.1351   -1.6233   -3.9930 O   0  0  0  0  0  0  0  0  0  0  0  0
   -8.2373   -3.6823   -3.6253 O   0  0  0  0  0  0  0  0  0  0  0  0
   -9.2120   -4.0826   -4.5332 C   0  0  0  0  0  0  0  0  0  0  0  0
   -7.0027    5.3129    2.2503 O   0  0  0  0  0  0  0  0  0  0  0  0
   -4.8490    5.9218    2.6438 O   0  0  0  0  0  0  0  0  0  0  0  0
   -5.4648    6.9006    3.4169 C   0  0  0  0  0  0  0  0  0  0  0  0
    0.7300    7.4027   -1.3665 O   0  0  0  0  0  0  0  0  0  0  0  0
   -1.3533    6.8810   -0.6040 O   0  0  0  0  0  0  0  0  0  0  0  0
   -1.7188    8.0130   -1.3226 C   0  0  0  0  0  0  0  0  0  0  0  0
   -9.0248   -3.5861   -5.4887 H   0  0  0  0  0  0  0  0  0  0  0  0
  -10.1932   -3.7854   -4.1550 H   0  0  0  0  0  0  0  0  0  0  0  0
   -9.1646   -5.1667   -4.6557 H   0  0  0  0  0  0  0  0  0  0  0  0
   -4.7033    7.5138    3.9027 H   0  0  0  0  0  0  0  0  0  0  0  0
   -6.0792    6.4000    4.1731 H   0  0  0  0  0  0  0  0  0  0  0  0
   -6.1010    7.5136    2.7736 H   0  0  0  0  0  0  0  0  0  0  0  0
   -2.7945    8.1712   -1.2183 H   0  0  0  0  0  0  0  0  0  0  0  0
   -1.4586    7.8594   -2.3731 H   0  0  0  0  0  0  0  0  0  0  0  0
   -1.1677    8.8717   -0.9306 H   0  0  0  0  0  0  0  0  0  0  0  0
   -0.5170   -6.6943    3.4434 H   0  0  0  0  0  0  0  0  0  0  0  0
   -0.4690   -5.2029    4.4541 H   0  0  0  0  0  0  0  0  0  0  0  0
    0.6825   -5.3943    3.1116 H   0  0  0  0  0  0  0  0  0  0  0  0
   -0.0863   -5.6055    0.7213 H   0  0  0  0  0  0  0  0  0  0  0  0
    1.4630   -5.4851   -0.1677 H   0  0  0  0  0  0  0  0  0  0  0  0
   -0.0916   -5.3224   -1.0460 H   0  0  0  0  0  0  0  0  0  0  0  0
    9.2531    1.8196    6.5428 H   0  0  0  0  0  0  0  0  0  0  0  0
    8.6897    3.5123    6.3411 H   0  0  0  0  0  0  0  0  0  0  0  0
    9.6307    2.7254    5.0383 H   0  0  0  0  0  0  0  0  0  0  0  0
   -8.3942    0.0831   -2.3561 H   0  0  0  0  0  0  0  0  0  0  0  0
   -6.1123   -3.4811   -2.4239 H   0  0  0  0  0  0  0  0  0  0  0  0
   -7.3384    3.4723    0.7384 H   0  0  0  0  0  0  0  0  0  0  0  0
   -2.8170   -4.1675    0.7184 H   0  0  0  0  0  0  0  0  0  0  0  0
   -3.2758    4.2496    1.6512 H   0  0  0  0  0  0  0  0  0  0  0  0
   -1.2895   -1.0631    3.1527 H   0  0  0  0  0  0  0  0  0  0  0  0
   -1.3666    4.5732    0.2336 H   0  0  0  0  0  0  0  0  0  0  0  0
   -0.1302   -1.4467    0.1274 H   0  0  0  0  0  0  0  0  0  0  0  0
    2.8738   -2.2980    2.9666 H   0  0  0  0  0  0  0  0  0  0  0  0
    2.4999    6.2869    0.0568 H   0  0  0  0  0  0  0  0  0  0  0  0
    5.8833    4.6951    2.8173 H   0  0  0  0  0  0  0  0  0  0  0  0
    5.7518    0.8364    4.5550 H   0  0  0  0  0  0  0  0  0  0  0  0
   -0.1112    3.5184    4.7212 C   0  0  0  0  0  0  0  0  0  0  0  0
    0.4237    2.5780    5.6027 C   0  0  0  0  0  0  0  0  0  0  0  0
    1.8389    2.5562    5.8247 C   0  0  0  0  0  0  0  0  0  0  0  0
    2.5698    3.7225    5.4466 C   0  0  0  0  0  0  0  0  0  0  0  0
    1.9481    4.7015    4.6538 C   0  0  0  0  0  0  0  0  0  0  0  0
    0.6373    4.5913    4.2656 C   0  0  0  0  0  0  0  0  0  0  0  0
    2.5235    1.4871    6.4970 C   0  0  0  0  0  0  0  0  0  0  0  0
    3.7770    1.8486    7.0278 C   0  0  0  0  0  0  0  0  0  0  0  0
    4.3693    3.1113    6.7215 C   0  0  0  0  0  0  0  0  0  0  0  0
    3.8184    3.9911    5.8716 N   0  0  0  0  0  0  0  0  0  0  0  0
    2.1348    0.1001    6.6350 C   0  0  0  0  0  0  0  0  0  0  0  0
    2.9524   -0.7101    7.4828 C   0  0  0  0  0  0  0  0  0  0  0  0
    4.0388   -0.2778    8.1551 N   0  0  0  0  0  0  0  0  0  0  0  0
    4.4798    0.9551    7.8808 C   0  0  0  0  0  0  0  0  0  0  0  0
    5.6961    1.3552    8.4416 C   0  0  0  0  0  0  0  0  0  0  0  0
    6.2604    2.5785    8.1485 C   0  0  0  0  0  0  0  0  0  0  0  0
    5.6081    3.4375    7.2872 C   0  0  0  0  0  0  0  0  0  0  0  0
    1.1045   -0.5923    5.8901 C   0  0  0  0  0  0  0  0  0  0  0  0
    0.9772   -1.9771    6.0000 C   0  0  0  0  0  0  0  0  0  0  0  0
    1.7487   -2.7244    6.8689 C   0  0  0  0  0  0  0  0  0  0  0  0
    2.7012   -2.0838    7.6100 C   0  0  0  0  0  0  0  0  0  0  0  0
   -0.4104    1.7678    6.3483 O   0  0  0  0  0  0  0  0  0  0  0  0
    0.1944   -0.0225    5.0176 O   0  0  0  0  0  0  0  0  0  0  0  0
    0.0042    5.6603    3.4640 C   0  0  0  0  0  0  0  0  0  0  0  0
    1.5920   -4.1871    7.0275 C   0  0  0  0  0  0  0  0  0  0  0  0
    7.5706    2.9434    8.7284 C   0  0  0  0  0  0  0  0  0  0  0  0
   -2.1505   -2.4215    6.8057 C   0  0  0  0  0  0  0  0  0  0  0  0
   -2.5077   -1.3253    6.0209 C   0  0  0  0  0  0  0  0  0  0  0  0
   -3.4885   -1.4953    4.9657 C   0  0  0  0  0  0  0  0  0  0  0  0
   -3.8511   -2.8473    4.6572 C   0  0  0  0  0  0  0  0  0  0  0  0
   -3.3827   -3.9098    5.4462 C   0  0  0  0  0  0  0  0  0  0  0  0
   -2.5935   -3.7040    6.5440 C   0  0  0  0  0  0  0  0  0  0  0  0
   -4.2804   -0.4645    4.3266 C   0  0  0  0  0  0  0  0  0  0  0  0
   -5.3464   -0.8848    3.5119 C   0  0  0  0  0  0  0  0  0  0  0  0
   -5.4574   -2.2501    3.1321 C   0  0  0  0  0  0  0  0  0  0  0  0
   -4.7010   -3.2121    3.6733 N   0  0  0  0  0  0  0  0  0  0  0  0
   -4.2421    0.9552    4.5376 C   0  0  0  0  0  0  0  0  0  0  0  0
   -5.4090    1.7380    4.2820 C   0  0  0  0  0  0  0  0  0  0  0  0
   -6.4259    1.3043    3.5133 N   0  0  0  0  0  0  0  0  0  0  0  0
   -6.3367    0.0425    3.0575 C   0  0  0  0  0  0  0  0  0  0  0  0
   -7.3136   -0.4043    2.1584 C   0  0  0  0  0  0  0  0  0  0  0  0
   -7.3570   -1.7157    1.7279 C   0  0  0  0  0  0  0  0  0  0  0  0
   -6.4454   -2.6255    2.2191 C   0  0  0  0  0  0  0  0  0  0  0  0
   -3.0608    1.6690    4.9229 C   0  0  0  0  0  0  0  0  0  0  0  0
   -3.1976    2.9214    5.5188 C   0  0  0  0  0  0  0  0  0  0  0  0
   -4.4042    3.6055    5.4673 C   0  0  0  0  0  0  0  0  0  0  0  0
   -5.4667    3.0483    4.7918 C   0  0  0  0  0  0  0  0  0  0  0  0
   -1.8417   -0.1774    6.4110 O   0  0  0  0  0  0  0  0  0  0  0  0
   -1.8312    1.1705    4.5480 O   0  0  0  0  0  0  0  0  0  0  0  0
   -2.3037   -4.8165    7.4747 C   0  0  0  0  0  0  0  0  0  0  0  0
   -4.4991    4.9584    6.0557 C   0  0  0  0  0  0  0  0  0  0  0  0
   -8.3810   -2.1633    0.7626 C   0  0  0  0  0  0  0  0  0  0  0  0
   -0.9727    0.6714    5.5852 B   0  0  0  0  0  0  0  0  0  0  0  0
    8.1445    3.9450    8.3483 O   0  0  0  0  0  0  0  0  0  0  0  0
    8.0710    2.0935    9.6720 O   0  0  0  0  0  0  0  0  0  0  0  0
    9.2846    2.5814   10.1441 C   0  0  0  0  0  0  0  0  0  0  0  0
    0.6132   -4.8143    6.3145 O   0  0  0  0  0  0  0  0  0  0  0  0
    0.5506   -6.1402    6.7278 C   0  0  0  0  0  0  0  0  0  0  0  0
    2.3338   -4.7691    7.7962 O   0  0  0  0  0  0  0  0  0  0  0  0
   -1.6936   -4.6052    8.5040 O   0  0  0  0  0  0  0  0  0  0  0  0
   -2.7988   -6.0410    7.1233 O   0  0  0  0  0  0  0  0  0  0  0  0
   -2.6638   -6.9277    8.1886 C   0  0  0  0  0  0  0  0  0  0  0  0
   -9.1310   -1.3545    0.2534 O   0  0  0  0  0  0  0  0  0  0  0  0
   -8.4035   -3.5032    0.4955 O   0  0  0  0  0  0  0  0  0  0  0  0
   -9.3317   -3.7791   -0.5037 C   0  0  0  0  0  0  0  0  0  0  0  0
   -5.5305    5.5937    5.9676 O   0  0  0  0  0  0  0  0  0  0  0  0
   -3.3752    5.4148    6.6805 O   0  0  0  0  0  0  0  0  0  0  0  0
   -3.6037    6.6832    7.2007 C   0  0  0  0  0  0  0  0  0  0  0  0
    0.6864    6.5623    3.0204 O   0  0  0  0  0  0  0  0  0  0  0  0
   -1.3451    5.5685    3.2809 O   0  0  0  0  0  0  0  0  0  0  0  0
   -1.7940    6.6468    2.5284 C   0  0  0  0  0  0  0  0  0  0  0  0
   -8.8529   -3.6000   -1.4682 H   0  0  0  0  0  0  0  0  0  0  0  0
  -10.1983   -3.1221   -0.3853 H   0  0  0  0  0  0  0  0  0  0  0  0
   -9.6351   -4.8252   -0.4278 H   0  0  0  0  0  0  0  0  0  0  0  0
   -2.7259    6.9945    7.7712 H   0  0  0  0  0  0  0  0  0  0  0  0
   -4.4830    6.6447    7.8490 H   0  0  0  0  0  0  0  0  0  0  0  0
   -3.7822    7.3776    6.3770 H   0  0  0  0  0  0  0  0  0  0  0  0
   -2.8806    6.5867    2.4447 H   0  0  0  0  0  0  0  0  0  0  0  0
   -1.3375    6.5964    1.5380 H   0  0  0  0  0  0  0  0  0  0  0  0
   -1.4973    7.5737    3.0249 H   0  0  0  0  0  0  0  0  0  0  0  0
   -2.9648   -7.9257    7.8638 H   0  0  0  0  0  0  0  0  0  0  0  0
   -3.3065   -6.5901    9.0052 H   0  0  0  0  0  0  0  0  0  0  0  0
   -1.6262   -6.9362    8.5279 H   0  0  0  0  0  0  0  0  0  0  0  0
    0.4782   -6.1461    7.8196 H   0  0  0  0  0  0  0  0  0  0  0  0
    1.4652   -6.6517    6.4174 H   0  0  0  0  0  0  0  0  0  0  0  0
   -0.3287   -6.6197    6.2921 H   0  0  0  0  0  0  0  0  0  0  0  0
    9.6559    1.9152   10.9258 H   0  0  0  0  0  0  0  0  0  0  0  0
    9.1265    3.5854   10.5461 H   0  0  0  0  0  0  0  0  0  0  0  0
    9.9963    2.6262    9.3165 H   0  0  0  0  0  0  0  0  0  0  0  0
   -8.0477    0.2890    1.7882 H   0  0  0  0  0  0  0  0  0  0  0  0
   -6.5150   -3.6535    1.9129 H   0  0  0  0  0  0  0  0  0  0  0  0
   -6.3623    3.6277    4.6534 H   0  0  0  0  0  0  0  0  0  0  0  0
   -3.7243   -4.9060    5.2291 H   0  0  0  0  0  0  0  0  0  0  0  0
   -2.3547    3.3909    5.9928 H   0  0  0  0  0  0  0  0  0  0  0  0
   -1.4971   -2.2617    7.6448 H   0  0  0  0  0  0  0  0  0  0  0  0
   -1.1255    3.4247    4.3798 H   0  0  0  0  0  0  0  0  0  0  0  0
    0.2669   -2.4794    5.3662 H   0  0  0  0  0  0  0  0  0  0  0  0
    3.3200   -2.6689    8.2677 H   0  0  0  0  0  0  0  0  0  0  0  0
    2.5103    5.5654    4.3468 H   0  0  0  0  0  0  0  0  0  0  0  0
    6.0706    4.3756    7.0361 H   0  0  0  0  0  0  0  0  0  0  0  0
    6.2177    0.6821    9.0978 H   0  0  0  0  0  0  0  0  0  0  0  0
  1  2  2  0  0  0  0
  1  6  1  0  0  0  0
  1 96  1  0  0  0  0
  2 22  1  0  0  0  0
  3  2  1  0  0  0  0
  3  4  1  0  0  0  0
  3  7  1  0  0  0  0
  4  5  1  0  0  0  0
  4 10  2  0  0  0  0
  5  6  2  0  0  0  0
  5 99  1  0  0  0  0
  6 24  1  0  0  0  0
  7  8  2  0  0  0  0
  7 11  1  0  0  0  0
  8  9  1  0  0  0  0
  8 14  1  0  0  0  0
  9 10  1  0  0  0  0
  9 17  2  0  0  0  0
 11 12  1  0  0  0  0
 11 18  2  0  0  0  0
 12 13  1  0  0  0  0
 12 21  2  0  0  0  0
 13 14  2  0  0  0  0
 14 15  1  0  0  0  0
 15 16  2  0  0  0  0
 15101  1  0  0  0  0
 16 17  1  0  0  0  0
 16 26  1  0  0  0  0
 17100  1  0  0  0  0
 18 19  1  0  0  0  0
 18 23  1  0  0  0  0
 19 20  2  0  0  0  0
 19 97  1  0  0  0  0
 20 21  1  0  0  0  0
 20 25  1  0  0  0  0
 21 98  1  0  0  0  0
 23 53  1  0  0  0  0
 24 69  2  0  0  0  0
 24 70  1  0  0  0  0
 25 57  1  0  0  0  0
 25 59  2  0  0  0  0
 26 54  2  0  0  0  0
 26 55  1  0  0  0  0
 27 28  2  0  0  0  0
 27 32  1  0  0  0  0
 27 95  1  0  0  0  0
 28 48  1  0  0  0  0
 29 28  1  0  0  0  0
 29 30  1  0  0  0  0
 29 33  1  0  0  0  0
 30 31  1  0  0  0  0
 30 36  2  0  0  0  0
 31 32  2  0  0  0  0
 31 93  1  0  0  0  0
 32 50  1  0  0  0  0
 33 34  2  0  0  0  0
 33 37  1  0  0  0  0
 34 35  1  0  0  0  0
 34 40  1  0  0  0  0
 35 36  1  0  0  0  0
 35 43  2  0  0  0  0
 37 38  1  0  0  0  0
 37 44  2  0  0  0  0
 38 39  1  0  0  0  0
 38 47  2  0  0  0  0
 39 40  2  0  0  0  0
 40 41  1  0  0  0  0
 41 42  2  0  0  0  0
 41 90  1  0  0  0  0
 42 43  1  0  0  0  0
 42 52  1  0  0  0  0
 43 91  1  0  0  0  0
 44 45  1  0  0  0  0
 44 49  1  0  0  0  0
 45 46  2  0  0  0  0
 45 94  1  0  0  0  0
 46 47  1  0  0  0  0
 46 51  1  0  0  0  0
 47 92  1  0  0  0  0
 48 53  1  0  0  0  0
 49 53  1  0  0  0  0
 50 60  2  0  0  0  0
 50 61  1  0  0  0  0
 51 66  2  0  0  0  0
 51 67  1  0  0  0  0
 52 63  2  0  0  0  0
 52 64  1  0  0  0  0
 53 22  1  0  0  0  0
 55 56  1  0  0  0  0
 56 87  1  0  0  0  0
 56 88  1  0  0  0  0
 56 89  1  0  0  0  0
 57 58  1  0  0  0  0
 58 84  1  0  0  0  0
 58 85  1  0  0  0  0
 58 86  1  0  0  0  0
 61 62  1  0  0  0  0
 62 81  1  0  0  0  0
 62 82  1  0  0  0  0
 62 83  1  0  0  0  0
 64 65  1  0  0  0  0
 65 72  1  0  0  0  0
 65 73  1  0  0  0  0
 65 74  1  0  0  0  0
 67 68  1  0  0  0  0
 68 75  1  0  0  0  0
 68 76  1  0  0  0  0
 68 77  1  0  0  0  0
 70 71  1  0  0  0  0
 71 78  1  0  0  0  0
 71 79  1  0  0  0  0
 71 80  1  0  0  0  0
102103  2  0  0  0  0
102107  1  0  0  0  0
102197  1  0  0  0  0
103123  1  0  0  0  0
104103  1  0  0  0  0
104105  1  0  0  0  0
104108  1  0  0  0  0
105106  1  0  0  0  0
105111  2  0  0  0  0
106107  2  0  0  0  0
106200  1  0  0  0  0
107125  1  0  0  0  0
108109  2  0  0  0  0
108112  1  0  0  0  0
109110  1  0  0  0  0
109115  1  0  0  0  0
110111  1  0  0  0  0
110118  2  0  0  0  0
112113  1  0  0  0  0
112119  2  0  0  0  0
113114  1  0  0  0  0
113122  2  0  0  0  0
114115  2  0  0  0  0
115116  1  0  0  0  0
116117  2  0  0  0  0
116202  1  0  0  0  0
117118  1  0  0  0  0
117127  1  0  0  0  0
118201  1  0  0  0  0
119120  1  0  0  0  0
119124  1  0  0  0  0
120121  2  0  0  0  0
120198  1  0  0  0  0
121122  1  0  0  0  0
121126  1  0  0  0  0
122199  1  0  0  0  0
124154  1  0  0  0  0
125170  2  0  0  0  0
125171  1  0  0  0  0
126158  1  0  0  0  0
126160  2  0  0  0  0
127155  2  0  0  0  0
127156  1  0  0  0  0
128129  2  0  0  0  0
128133  1  0  0  0  0
128196  1  0  0  0  0
129149  1  0  0  0  0
130129  1  0  0  0  0
130131  1  0  0  0  0
130134  1  0  0  0  0
131132  1  0  0  0  0
131137  2  0  0  0  0
132133  2  0  0  0  0
132194  1  0  0  0  0
133151  1  0  0  0  0
134135  2  0  0  0  0
134138  1  0  0  0  0
135136  1  0  0  0  0
135141  1  0  0  0  0
136137  1  0  0  0  0
136144  2  0  0  0  0
138139  1  0  0  0  0
138145  2  0  0  0  0
139140  1  0  0  0  0
139148  2  0  0  0  0
140141  2  0  0  0  0
141142  1  0  0  0  0
142143  2  0  0  0  0
142191  1  0  0  0  0
143144  1  0  0  0  0
143153  1  0  0  0  0
144192  1  0  0  0  0
145146  1  0  0  0  0
145150  1  0  0  0  0
146147  2  0  0  0  0
146195  1  0  0  0  0
147148  1  0  0  0  0
147152  1  0  0  0  0
148193  1  0  0  0  0
149154  1  0  0  0  0
150154  1  0  0  0  0
151161  2  0  0  0  0
151162  1  0  0  0  0
152167  2  0  0  0  0
152168  1  0  0  0  0
153164  2  0  0  0  0
153165  1  0  0  0  0
154123  1  0  0  0  0
156157  1  0  0  0  0
157188  1  0  0  0  0
157189  1  0  0  0  0
157190  1  0  0  0  0
158159  1  0  0  0  0
159185  1  0  0  0  0
159186  1  0  0  0  0
159187  1  0  0  0  0
162163  1  0  0  0  0
163182  1  0  0  0  0
163183  1  0  0  0  0
163184  1  0  0  0  0
165166  1  0  0  0  0
166173  1  0  0  0  0
166174  1  0  0  0  0
166175  1  0  0  0  0
168169  1  0  0  0  0
169176  1  0  0  0  0
169177  1  0  0  0  0
169178  1  0  0  0  0
171172  1  0  0  0  0
172179  1  0  0  0  0
172180  1  0  0  0  0
172181  1  0  0  0  0
M  CHG  1   8   1
M  CHG  1  53  -1
M  CHG  1 109   1
M  CHG  1 154  -1
M  END
