
 OpenBabel11072412053D

202224  0  0  0  0  0  0  0  0999 V2000
   -0.6066    4.8540    1.1292 C   0  0  0  0  0  0  0  0  0  0  0  0
   -0.1705    3.6122    1.6082 C   0  0  0  0  0  0  0  0  0  0  0  0
    1.1835    3.2940    1.6276 C   0  0  0  0  0  0  0  0  0  0  0  0
    2.0771    4.3624    1.3753 C   0  0  0  0  0  0  0  0  0  0  0  0
    1.6618    5.5743    0.8745 C   0  0  0  0  0  0  0  0  0  0  0  0
    0.3151    5.8100    0.6908 C   0  0  0  0  0  0  0  0  0  0  0  0
    1.7750    1.9213    1.8981 C   0  0  0  0  0  0  0  0  0  0  0  0
    3.1441    2.0164    2.5091 C   0  3  0  0  0  0  0  0  0  0  0  0
    3.9192    3.2618    2.2775 C   0  0  0  0  0  0  0  0  0  0  0  0
    3.4268    4.2821    1.7124 N   0  0  0  0  0  0  0  0  0  0  0  0
    1.3421    0.6617    1.4761 C   0  0  0  0  0  0  0  0  0  0  0  0
    2.1983   -0.4913    1.6925 C   0  0  0  0  0  0  0  0  0  0  0  0
    3.3831   -0.4142    2.2098 N   0  0  0  0  0  0  0  0  0  0  0  0
    3.9796    0.7999    2.5111 C   0  0  0  0  0  0  0  0  0  0  0  0
    5.3114    0.8752    2.6936 C   0  0  0  0  0  0  0  0  0  0  0  0
    5.9677    2.2029    2.8802 C   0  0  0  0  0  0  0  0  0  0  0  0
    5.2800    3.3322    2.7208 C   0  0  0  0  0  0  0  0  0  0  0  0
    0.1278    0.3706    0.7346 C   0  0  0  0  0  0  0  0  0  0  0  0
   -0.0898   -0.9044    0.2160 C   0  0  0  0  0  0  0  0  0  0  0  0
    0.7613   -1.9630    0.4621 C   0  0  0  0  0  0  0  0  0  0  0  0
    1.8829   -1.7575    1.2402 C   0  0  0  0  0  0  0  0  0  0  0  0
   -1.0255    2.7519    2.1542 O   0  0  0  0  0  0  0  0  0  0  0  0
   -0.8777    1.2116    0.4363 O   0  0  0  0  0  0  0  0  0  0  0  0
   -0.1272    7.0758    0.1163 C   0  0  0  0  0  0  0  0  0  0  0  0
    0.4872   -3.2866   -0.1085 C   0  0  0  0  0  0  0  0  0  0  0  0
    7.3944    2.3262    3.1384 C   0  0  0  0  0  0  0  0  0  0  0  0
   -1.7890   -1.2395    2.5156 C   0  0  0  0  0  0  0  0  0  0  0  0
   -2.6478   -0.3097    1.9383 C   0  0  0  0  0  0  0  0  0  0  0  0
   -3.6607   -0.6893    1.0262 C   0  0  0  0  0  0  0  0  0  0  0  0
   -3.7199   -2.0909    0.7303 C   0  0  0  0  0  0  0  0  0  0  0  0
   -2.8300   -3.0015    1.2884 C   0  0  0  0  0  0  0  0  0  0  0  0
   -1.8556   -2.5808    2.1809 C   0  0  0  0  0  0  0  0  0  0  0  0
   -4.7986    0.2189    0.5311 C   0  0  0  0  0  0  0  0  0  0  0  0
   -5.9300   -0.5973   -0.0027 C   0  0  2  0  0  0  0  0  0  0  0  0
   -5.7242   -1.9746   -0.4807 C   0  0  0  0  0  0  0  0  0  0  0  0
   -4.7068   -2.6426   -0.1121 N   0  0  0  0  0  0  0  0  0  0  0  0
   -5.0473    1.5794    0.6920 C   0  0  0  0  0  0  0  0  0  0  0  0
   -6.4176    2.0543    0.6238 C   0  0  0  0  0  0  0  0  0  0  0  0
   -7.3973    1.3360    0.1824 N   0  0  0  0  0  0  0  0  0  0  0  0
   -7.1941    0.0628   -0.3241 C   0  0  0  0  0  0  0  0  0  0  0  0
   -8.1209   -0.5397   -1.0664 C   0  0  0  0  0  0  0  0  0  0  0  0
   -7.8934   -1.9147   -1.5745 C   0  0  0  0  0  0  0  0  0  0  0  0
   -6.7640   -2.5965   -1.2859 C   0  0  0  0  0  0  0  0  0  0  0  0
   -4.0875    2.6147    0.9471 C   0  0  0  0  0  0  0  0  0  0  0  0
   -4.4900    3.8970    1.2883 C   0  0  0  0  0  0  0  0  0  0  0  0
   -5.8205    4.2467    1.3871 C   0  0  0  0  0  0  0  0  0  0  0  0
   -6.7807    3.3230    1.0293 C   0  0  0  0  0  0  0  0  0  0  0  0
   -2.4390    0.9431    2.2929 O   0  0  0  0  0  0  0  0  0  0  0  0
   -2.7755    2.5370    0.6807 O   0  0  0  0  0  0  0  0  0  0  0  0
   -0.8604   -3.5231    2.7065 C   0  0  0  0  0  0  0  0  0  0  0  0
   -6.2070    5.6037    1.7732 C   0  0  0  0  0  0  0  0  0  0  0  0
   -8.9433   -2.5577   -2.3513 C   0  0  0  0  0  0  0  0  0  0  0  0
   -1.7792    1.8427    1.3905 B   0  5  1  0  0  0  0  0  0  0  0  0
    7.9042    3.4364    3.2489 O   0  0  0  0  0  0  0  0  0  0  0  0
    8.1600    1.2221    3.1292 O   0  0  0  0  0  0  0  0  0  0  0  0
    9.5213    1.3211    3.2018 C   0  0  0  0  0  0  0  0  0  0  0  0
   -0.6609   -3.4758   -0.7994 O   0  0  0  0  0  0  0  0  0  0  0  0
   -1.0311   -4.6879   -1.3156 C   0  0  0  0  0  0  0  0  0  0  0  0
    1.2869   -4.1978    0.0303 O   0  0  0  0  0  0  0  0  0  0  0  0
    0.0741   -3.1077    3.3755 O   0  0  0  0  0  0  0  0  0  0  0  0
   -0.9079   -4.8216    2.3318 O   0  0  0  0  0  0  0  0  0  0  0  0
    0.0887   -5.7266    2.6104 C   0  0  0  0  0  0  0  0  0  0  0  0
   -9.8880   -1.9078   -2.7783 O   0  0  0  0  0  0  0  0  0  0  0  0
   -8.8781   -3.8927   -2.5252 O   0  0  0  0  0  0  0  0  0  0  0  0
   -9.8480   -4.6103   -3.1585 C   0  0  0  0  0  0  0  0  0  0  0  0
   -7.3858    5.9250    1.8112 O   0  0  0  0  0  0  0  0  0  0  0  0
   -5.2370    6.5010    2.0638 O   0  0  0  0  0  0  0  0  0  0  0  0
   -5.5091    7.8043    2.3779 C   0  0  0  0  0  0  0  0  0  0  0  0
    0.6681    7.8201   -0.4447 O   0  0  0  0  0  0  0  0  0  0  0  0
   -1.4352    7.3897    0.1976 O   0  0  0  0  0  0  0  0  0  0  0  0
   -1.9526    8.5600   -0.2749 C   0  0  0  0  0  0  0  0  0  0  0  0
   -9.9044   -4.2668   -4.2096 H   0  0  0  0  0  0  0  0  0  0  0  0
  -10.8207   -4.4544   -2.6425 H   0  0  0  0  0  0  0  0  0  0  0  0
   -9.5678   -5.6796   -3.1134 H   0  0  0  0  0  0  0  0  0  0  0  0
   -4.5537    8.3329    2.5570 H   0  0  0  0  0  0  0  0  0  0  0  0
   -6.1390    7.8437    3.2900 H   0  0  0  0  0  0  0  0  0  0  0  0
   -6.0521    8.2730    1.5316 H   0  0  0  0  0  0  0  0  0  0  0  0
   -3.0393    8.5606   -0.0674 H   0  0  0  0  0  0  0  0  0  0  0  0
   -1.7668    8.6118   -1.3661 H   0  0  0  0  0  0  0  0  0  0  0  0
   -1.4689    9.4179    0.2410 H   0  0  0  0  0  0  0  0  0  0  0  0
   -0.3570   -6.7343    2.6794 H   0  0  0  0  0  0  0  0  0  0  0  0
    0.6070   -5.4748    3.5574 H   0  0  0  0  0  0  0  0  0  0  0  0
    0.8379   -5.7213    1.7995 H   0  0  0  0  0  0  0  0  0  0  0  0
   -1.1279   -5.4257   -0.4906 H   0  0  0  0  0  0  0  0  0  0  0  0
   -0.2645   -5.0272   -2.0424 H   0  0  0  0  0  0  0  0  0  0  0  0
   -2.0075   -4.5682   -1.8238 H   0  0  0  0  0  0  0  0  0  0  0  0
    9.9598    0.3184    3.0747 H   0  0  0  0  0  0  0  0  0  0  0  0
    9.8065    1.7514    4.1781 H   0  0  0  0  0  0  0  0  0  0  0  0
    9.8762    2.0018    2.3972 H   0  0  0  0  0  0  0  0  0  0  0  0
   -9.0512   -0.0223   -1.2766 H   0  0  0  0  0  0  0  0  0  0  0  0
   -6.5987   -3.6142   -1.6224 H   0  0  0  0  0  0  0  0  0  0  0  0
   -7.8274    3.6020    1.0451 H   0  0  0  0  0  0  0  0  0  0  0  0
   -2.9146   -4.0476    1.0200 H   0  0  0  0  0  0  0  0  0  0  0  0
   -3.7317    4.6423    1.4649 H   0  0  0  0  0  0  0  0  0  0  0  0
   -1.0281   -0.8858    3.1973 H   0  0  0  0  0  0  0  0  0  0  0  0
   -1.6560    5.0718    1.0917 H   0  0  0  0  0  0  0  0  0  0  0  0
   -0.9865   -1.0683   -0.3747 H   0  0  0  0  0  0  0  0  0  0  0  0
    2.5589   -2.5834    1.4336 H   0  0  0  0  0  0  0  0  0  0  0  0
    2.4027    6.3377    0.6565 H   0  0  0  0  0  0  0  0  0  0  0  0
    5.7147    4.3143    2.8848 H   0  0  0  0  0  0  0  0  0  0  0  0
    5.9051   -0.0322    2.6755 H   0  0  0  0  0  0  0  0  0  0  0  0
    0.4071    4.1226    5.4823 C   0  0  0  0  0  0  0  0  0  0  0  0
    0.8355    2.8799    5.9301 C   0  0  0  0  0  0  0  0  0  0  0  0
    2.1368    2.4523    5.7145 C   0  0  0  0  0  0  0  0  0  0  0  0
    3.0228    3.4201    5.1808 C   0  0  0  0  0  0  0  0  0  0  0  0
    2.5793    4.6308    4.6724 C   0  0  0  0  0  0  0  0  0  0  0  0
    1.2508    4.9740    4.7876 C   0  0  0  0  0  0  0  0  0  0  0  0
    2.6698    1.1299    6.1945 C   0  0  0  0  0  0  0  0  0  0  0  0
    4.1218    1.2244    6.4696 C   0  3  0  0  0  0  0  0  0  0  0  0
    4.9459    2.2631    5.8356 C   0  0  0  0  0  0  0  0  0  0  0  0
    4.4096    3.2440    5.2367 N   0  0  0  0  0  0  0  0  0  0  0  0
    2.0863   -0.1130    6.3679 C   0  0  0  0  0  0  0  0  0  0  0  0
    2.8406   -1.1399    7.0652 C   0  0  0  0  0  0  0  0  0  0  0  0
    4.0488   -0.9791    7.4944 N   0  0  0  0  0  0  0  0  0  0  0  0
    4.7996    0.1434    7.1631 C   0  0  0  0  0  0  0  0  0  0  0  0
    6.1142    0.1939    7.3826 C   0  0  0  0  0  0  0  0  0  0  0  0
    6.9328    1.2952    6.7990 C   0  0  0  0  0  0  0  0  0  0  0  0
    6.3784    2.2423    6.0314 C   0  0  0  0  0  0  0  0  0  0  0  0
    0.7856   -0.5041    5.8866 C   0  0  0  0  0  0  0  0  0  0  0  0
    0.3990   -1.8402    5.9962 C   0  0  0  0  0  0  0  0  0  0  0  0
    1.1365   -2.7729    6.7140 C   0  0  0  0  0  0  0  0  0  0  0  0
    2.3266   -2.3949    7.2916 C   0  0  0  0  0  0  0  0  0  0  0  0
   -0.0096    2.1480    6.6470 O   0  0  0  0  0  0  0  0  0  0  0  0
   -0.0952    0.3029    5.2487 O   0  0  0  0  0  0  0  0  0  0  0  0
    0.7427    6.2328    4.2505 C   0  0  0  0  0  0  0  0  0  0  0  0
    0.6930   -4.1646    6.8348 C   0  0  0  0  0  0  0  0  0  0  0  0
    8.3638    1.3361    7.0639 C   0  0  0  0  0  0  0  0  0  0  0  0
   -1.7318   -1.2979    7.8508 C   0  0  0  0  0  0  0  0  0  0  0  0
   -2.2129   -0.4740    6.8414 C   0  0  0  0  0  0  0  0  0  0  0  0
   -3.0308   -0.9587    5.7989 C   0  0  0  0  0  0  0  0  0  0  0  0
   -3.2649   -2.3747    5.8119 C   0  0  0  0  0  0  0  0  0  0  0  0
   -2.7589   -3.1944    6.8171 C   0  0  0  0  0  0  0  0  0  0  0  0
   -2.0050   -2.6558    7.8557 C   0  0  0  0  0  0  0  0  0  0  0  0
   -3.8745   -0.0770    4.8595 C   0  0  0  0  0  0  0  0  0  0  0  0
   -4.9835   -0.8848    4.2755 C   0  0  2  0  0  0  0  0  0  0  0  0
   -4.8715   -2.3451    4.1143 C   0  0  0  0  0  0  0  0  0  0  0  0
   -4.0841   -3.0103    4.8581 N   0  0  0  0  0  0  0  0  0  0  0  0
   -3.9648    1.3113    4.7068 C   0  0  0  0  0  0  0  0  0  0  0  0
   -5.2358    1.8657    4.2692 C   0  0  0  0  0  0  0  0  0  0  0  0
   -6.1967    1.1598    3.7913 N   0  0  0  0  0  0  0  0  0  0  0  0
   -6.0784   -0.2068    3.5992 C   0  0  0  0  0  0  0  0  0  0  0  0
   -6.9431   -0.8724    2.8444 C   0  0  0  0  0  0  0  0  0  0  0  0
   -6.7919   -2.3332    2.6363 C   0  0  0  0  0  0  0  0  0  0  0  0
   -5.8036   -3.0293    3.2338 C   0  0  0  0  0  0  0  0  0  0  0  0
   -2.9604    2.3037    4.9623 C   0  0  0  0  0  0  0  0  0  0  0  0
   -3.2878    3.6563    4.9981 C   0  0  0  0  0  0  0  0  0  0  0  0
   -4.5758    4.1043    4.8243 C   0  0  0  0  0  0  0  0  0  0  0  0
   -5.5301    3.2102    4.4024 C   0  0  0  0  0  0  0  0  0  0  0  0
   -1.8447    0.7843    6.9136 O   0  0  0  0  0  0  0  0  0  0  0  0
   -1.6403    2.0726    5.0253 O   0  0  0  0  0  0  0  0  0  0  0  0
   -1.4665   -3.4961    8.9332 C   0  0  0  0  0  0  0  0  0  0  0  0
   -4.9145    5.5059    5.0874 C   0  0  0  0  0  0  0  0  0  0  0  0
   -7.7529   -3.0272    1.7910 C   0  0  0  0  0  0  0  0  0  0  0  0
   -0.9063    1.3005    5.9564 B   0  5  1  0  0  0  0  0  0  0  0  0
    9.0913    2.1029    6.4483 O   0  0  0  0  0  0  0  0  0  0  0  0
    8.8447    0.5945    8.0803 O   0  0  0  0  0  0  0  0  0  0  0  0
   10.1664    0.6004    8.4254 C   0  0  0  0  0  0  0  0  0  0  0  0
   -0.2817   -4.6105    6.0124 O   0  0  0  0  0  0  0  0  0  0  0  0
   -0.7282   -5.9054    6.0116 C   0  0  0  0  0  0  0  0  0  0  0  0
    1.2421   -4.9240    7.6208 O   0  0  0  0  0  0  0  0  0  0  0  0
   -0.7178   -3.0079    9.7697 O   0  0  0  0  0  0  0  0  0  0  0  0
   -1.7878   -4.8073    8.9895 O   0  0  0  0  0  0  0  0  0  0  0  0
   -1.1985   -5.6681    9.8812 C   0  0  0  0  0  0  0  0  0  0  0  0
   -8.6772   -2.4147    1.2741 O   0  0  0  0  0  0  0  0  0  0  0  0
   -7.6178   -4.3572    1.6198 O   0  0  0  0  0  0  0  0  0  0  0  0
   -8.4769   -5.0974    0.8635 C   0  0  0  0  0  0  0  0  0  0  0  0
   -6.0559    5.9069    4.9133 O   0  0  0  0  0  0  0  0  0  0  0  0
   -3.9956    6.2868    5.7029 O   0  0  0  0  0  0  0  0  0  0  0  0
   -4.2609    7.5570    6.1423 C   0  0  0  0  0  0  0  0  0  0  0  0
    1.4922    7.0265    3.6965 O   0  0  0  0  0  0  0  0  0  0  0  0
   -0.5769    6.4893    4.3739 O   0  0  0  0  0  0  0  0  0  0  0  0
   -1.2056    7.5451    3.7786 C   0  0  0  0  0  0  0  0  0  0  0  0
   -8.4205   -4.7565   -0.1866 H   0  0  0  0  0  0  0  0  0  0  0  0
   -9.5063   -4.9646    1.2558 H   0  0  0  0  0  0  0  0  0  0  0  0
   -8.1733   -6.1577    0.9346 H   0  0  0  0  0  0  0  0  0  0  0  0
   -3.3855    7.9244    6.7140 H   0  0  0  0  0  0  0  0  0  0  0  0
   -5.1501    7.5397    6.8083 H   0  0  0  0  0  0  0  0  0  0  0  0
   -4.4498    8.2159    5.2717 H   0  0  0  0  0  0  0  0  0  0  0  0
   -2.1975    7.6545    4.2454 H   0  0  0  0  0  0  0  0  0  0  0  0
   -1.3338    7.3463    2.6990 H   0  0  0  0  0  0  0  0  0  0  0  0
   -0.6125    8.4669    3.9407 H   0  0  0  0  0  0  0  0  0  0  0  0
   -1.6865   -6.6578    9.8041 H   0  0  0  0  0  0  0  0  0  0  0  0
   -1.3159   -5.2694   10.9101 H   0  0  0  0  0  0  0  0  0  0  0  0
   -0.1177   -5.7671    9.6455 H   0  0  0  0  0  0  0  0  0  0  0  0
   -1.2142   -6.1326    6.9769 H   0  0  0  0  0  0  0  0  0  0  0  0
    0.1287   -6.5940    5.8560 H   0  0  0  0  0  0  0  0  0  0  0  0
   -1.4626   -6.0231    5.1921 H   0  0  0  0  0  0  0  0  0  0  0  0
   10.2873    0.0246    9.3614 H   0  0  0  0  0  0  0  0  0  0  0  0
   10.5035    1.6479    8.5880 H   0  0  0  0  0  0  0  0  0  0  0  0
   10.7476    0.1374    7.6031 H   0  0  0  0  0  0  0  0  0  0  0  0
   -7.7473   -0.3281    2.3641 H   0  0  0  0  0  0  0  0  0  0  0  0
   -5.6957   -4.1018    3.1138 H   0  0  0  0  0  0  0  0  0  0  0  0
   -6.5359    3.5541    4.1946 H   0  0  0  0  0  0  0  0  0  0  0  0
   -2.9891   -4.2533    6.7880 H   0  0  0  0  0  0  0  0  0  0  0  0
   -2.5323    4.3868    5.1877 H   0  0  0  0  0  0  0  0  0  0  0  0
   -1.1147   -0.8621    8.6262 H   0  0  0  0  0  0  0  0  0  0  0  0
   -0.5867    4.4223    5.7050 H   0  0  0  0  0  0  0  0  0  0  0  0
   -0.5320   -2.1412    5.5434 H   0  0  0  0  0  0  0  0  0  0  0  0
    2.9151   -3.1128    7.8509 H   0  0  0  0  0  0  0  0  0  0  0  0
    3.2843    5.3130    4.2141 H   0  0  0  0  0  0  0  0  0  0  0  0
    6.9637    3.0418    5.5978 H   0  0  0  0  0  0  0  0  0  0  0  0
    6.5919   -0.6141    7.9218 H   0  0  0  0  0  0  0  0  0  0  0  0
  1  2  2  0  0  0  0
  1 96  1  0  0  0  0
  2  3  1  0  0  0  0
  3  4  2  0  0  0  0
  3  7  1  0  0  0  0
  4  5  1  0  0  0  0
  5  6  2  0  0  0  0
  5 99  1  0  0  0  0
  6  1  1  0  0  0  0
  6 24  1  0  0  0  0
  7  8  1  0  0  0  0
  7 11  2  0  0  0  0
  8  9  1  0  0  0  0
  9 10  2  0  0  0  0
 10  4  1  0  0  0  0
 11 12  1  0  0  0  0
 11 18  1  0  0  0  0
 12 13  2  0  0  0  0
 13 14  1  0  0  0  0
 14  8  1  0  0  0  0
 14 15  2  0  0  0  0
 15 16  1  0  0  0  0
 15101  1  0  0  0  0
 16 17  2  0  0  0  0
 16 26  1  0  0  0  0
 17  9  1  0  0  0  0
 17100  1  0  0  0  0
 18 19  2  0  0  0  0
 19 20  1  0  0  0  0
 19 97  1  0  0  0  0
 20 21  2  0  0  0  0
 20 25  1  0  0  0  0
 21 12  1  0  0  0  0
 21 98  1  0  0  0  0
 22  2  1  0  0  0  0
 23 18  1  0  0  0  0
 24 69  2  0  0  0  0
 24 70  1  0  0  0  0
 25 57  1  0  0  0  0
 25 59  2  0  0  0  0
 26 54  2  0  0  0  0
 26 55  1  0  0  0  0
 27 28  2  0  0  0  0
 27 95  1  0  0  0  0
 28 29  1  0  0  0  0
 28 48  1  0  0  0  0
 29 30  2  0  0  0  0
 29 33  1  0  0  0  0
 30 31  1  0  0  0  0
 31 32  2  0  0  0  0
 31 93  1  0  0  0  0
 32 27  1  0  0  0  0
 32 50  1  0  0  0  0
 33 37  2  0  0  0  0
 34 33  1  6  0  0  0
 34 35  1  0  0  0  0
 35 36  2  0  0  0  0
 36 30  1  0  0  0  0
 37 38  1  0  0  0  0
 37 44  1  0  0  0  0
 38 39  2  0  0  0  0
 39 40  1  0  0  0  0
 40 34  1  0  0  0  0
 40 41  2  0  0  0  0
 41 42  1  0  0  0  0
 41 90  1  0  0  0  0
 42 43  2  0  0  0  0
 42 52  1  0  0  0  0
 43 35  1  0  0  0  0
 43 91  1  0  0  0  0
 44 45  2  0  0  0  0
 44 49  1  0  0  0  0
 45 46  1  0  0  0  0
 45 94  1  0  0  0  0
 46 47  2  0  0  0  0
 46 51  1  0  0  0  0
 47 38  1  0  0  0  0
 47 92  1  0  0  0  0
 50 60  2  0  0  0  0
 50 61  1  0  0  0  0
 51 66  2  0  0  0  0
 51 67  1  0  0  0  0
 52 63  2  0  0  0  0
 52 64  1  0  0  0  0
 53 49  1  6  0  0  0
 53 22  1  0  0  0  0
 53 48  1  0  0  0  0
 53 23  1  0  0  0  0
 55 56  1  0  0  0  0
 56 87  1  0  0  0  0
 56 88  1  0  0  0  0
 56 89  1  0  0  0  0
 57 58  1  0  0  0  0
 58 84  1  0  0  0  0
 58 85  1  0  0  0  0
 58 86  1  0  0  0  0
 61 62  1  0  0  0  0
 62 81  1  0  0  0  0
 62 82  1  0  0  0  0
 62 83  1  0  0  0  0
 64 65  1  0  0  0  0
 65 72  1  0  0  0  0
 65 73  1  0  0  0  0
 65 74  1  0  0  0  0
 67 68  1  0  0  0  0
 68 75  1  0  0  0  0
 68 76  1  0  0  0  0
 68 77  1  0  0  0  0
 70 71  1  0  0  0  0
 71 78  1  0  0  0  0
 71 79  1  0  0  0  0
 71 80  1  0  0  0  0
102103  2  0  0  0  0
102197  1  0  0  0  0
103104  1  0  0  0  0
104105  2  0  0  0  0
104108  1  0  0  0  0
105106  1  0  0  0  0
106107  2  0  0  0  0
106200  1  0  0  0  0
107102  1  0  0  0  0
107125  1  0  0  0  0
108109  1  0  0  0  0
108112  2  0  0  0  0
109110  1  0  0  0  0
110111  2  0  0  0  0
111105  1  0  0  0  0
112113  1  0  0  0  0
112119  1  0  0  0  0
113114  2  0  0  0  0
114115  1  0  0  0  0
115109  1  0  0  0  0
115116  2  0  0  0  0
116117  1  0  0  0  0
116202  1  0  0  0  0
117118  2  0  0  0  0
117127  1  0  0  0  0
118110  1  0  0  0  0
118201  1  0  0  0  0
119120  2  0  0  0  0
120121  1  0  0  0  0
120198  1  0  0  0  0
121122  2  0  0  0  0
121126  1  0  0  0  0
122113  1  0  0  0  0
122199  1  0  0  0  0
123103  1  0  0  0  0
124119  1  0  0  0  0
125170  2  0  0  0  0
125171  1  0  0  0  0
126158  1  0  0  0  0
126160  2  0  0  0  0
127155  2  0  0  0  0
127156  1  0  0  0  0
128129  2  0  0  0  0
128196  1  0  0  0  0
129130  1  0  0  0  0
129149  1  0  0  0  0
130131  2  0  0  0  0
130134  1  0  0  0  0
131132  1  0  0  0  0
132133  2  0  0  0  0
132194  1  0  0  0  0
133128  1  0  0  0  0
133151  1  0  0  0  0
134138  2  0  0  0  0
135134  1  6  0  0  0
135136  1  0  0  0  0
136137  2  0  0  0  0
137131  1  0  0  0  0
138139  1  0  0  0  0
138145  1  0  0  0  0
139140  2  0  0  0  0
140141  1  0  0  0  0
141135  1  0  0  0  0
141142  2  0  0  0  0
142143  1  0  0  0  0
142191  1  0  0  0  0
143144  2  0  0  0  0
143153  1  0  0  0  0
144136  1  0  0  0  0
144192  1  0  0  0  0
145146  2  0  0  0  0
145150  1  0  0  0  0
146147  1  0  0  0  0
146195  1  0  0  0  0
147148  2  0  0  0  0
147152  1  0  0  0  0
148139  1  0  0  0  0
148193  1  0  0  0  0
151161  2  0  0  0  0
151162  1  0  0  0  0
152167  2  0  0  0  0
152168  1  0  0  0  0
153164  2  0  0  0  0
153165  1  0  0  0  0
154150  1  6  0  0  0
154123  1  0  0  0  0
154149  1  0  0  0  0
154124  1  0  0  0  0
156157  1  0  0  0  0
157188  1  0  0  0  0
157189  1  0  0  0  0
157190  1  0  0  0  0
158159  1  0  0  0  0
159185  1  0  0  0  0
159186  1  0  0  0  0
159187  1  0  0  0  0
162163  1  0  0  0  0
163182  1  0  0  0  0
163183  1  0  0  0  0
163184  1  0  0  0  0
165166  1  0  0  0  0
166173  1  0  0  0  0
166174  1  0  0  0  0
166175  1  0  0  0  0
168169  1  0  0  0  0
169176  1  0  0  0  0
169177  1  0  0  0  0
169178  1  0  0  0  0
171172  1  0  0  0  0
172179  1  0  0  0  0
172180  1  0  0  0  0
172181  1  0  0  0  0
M  CHG  4   8   1  53  -1 109   1 154  -1
M  END
