 energy: -200.146070979545 gnorm: 0.000372032804 xtb: 6.6.1 (8d0f1dd)
          10312413513D

101112  0     0  0            999 V2000
   -0.1149    4.4972    0.2182 C   0  0  0  0  0  0  0  0  0  0  0  0
    0.3458    3.2649    0.6794 C   0  0  0  0  0  0  0  0  0  0  0  0
    1.7031    2.9137    0.4983 C   0  0  0  0  0  0  0  0  0  0  0  0
    2.5918    3.9821    0.0835 C   0  0  0  0  0  0  0  0  0  0  0  0
    2.0752    5.1988   -0.4317 C   0  0  0  0  0  0  0  0  0  0  0  0
    0.7259    5.4412   -0.3795 C   0  0  0  0  0  0  0  0  0  0  0  0
    2.3047    1.6408    0.8015 C   0  0  0  0  0  0  0  0  0  0  0  0
    3.6900    1.6981    1.0845 C   0  0  0  0  0  0  0  0  0  0  0  0
    4.4444    2.8834    0.8427 C   0  0  0  0  0  0  0  0  0  0  0  0
    3.8998    3.9440    0.2528 N   0  0  0  0  0  0  0  0  0  0  0  0
    1.7207    0.3244    0.7590 C   0  0  0  0  0  0  0  0  0  0  0  0
    2.5530   -0.7654    1.2315 C   0  0  0  0  0  0  0  0  0  0  0  0
    3.7784   -0.6148    1.7068 N   0  0  0  0  0  0  0  0  0  0  0  0
    4.3787    0.5627    1.5956 C   0  0  0  0  0  0  0  0  0  0  0  0
    5.7390    0.6582    1.9651 C   0  0  0  0  0  0  0  0  0  0  0  0
    6.4462    1.8285    1.7419 C   0  0  0  0  0  0  0  0  0  0  0  0
    5.8146    2.9230    1.1609 C   0  0  0  0  0  0  0  0  0  0  0  0
    0.4939   -0.0557    0.1401 C   0  0  0  0  0  0  0  0  0  0  0  0
    0.2388   -1.4113   -0.1097 C   0  0  0  0  0  0  0  0  0  0  0  0
    1.0531   -2.4435    0.3653 C   0  0  0  0  0  0  0  0  0  0  0  0
    2.1583   -2.1225    1.1083 C   0  0  0  0  0  0  0  0  0  0  0  0
   -0.4901    2.4720    1.3471 O   0  0  0  0  0  0  0  0  0  0  0  0
   -0.4317    0.7789   -0.3166 O   0  0  0  0  0  0  0  0  0  0  0  0
    0.1915    6.7368   -0.9059 C   0  0  0  0  0  0  0  0  0  0  0  0
    0.7443   -3.8786    0.0928 C   0  0  0  0  0  0  0  0  0  0  0  0
    7.9062    1.9581    2.0769 C   0  0  0  0  0  0  0  0  0  0  0  0
   -1.6102   -1.4745    2.0046 C   0  0  0  0  0  0  0  0  0  0  0  0
   -2.3557   -0.5007    1.3388 C   0  0  0  0  0  0  0  0  0  0  0  0
   -3.4134   -0.8825    0.4688 C   0  0  0  0  0  0  0  0  0  0  0  0
   -3.5647   -2.3068    0.2501 C   0  0  0  0  0  0  0  0  0  0  0  0
   -2.7410   -3.2598    0.9049 C   0  0  0  0  0  0  0  0  0  0  0  0
   -1.7993   -2.8472    1.8080 C   0  0  0  0  0  0  0  0  0  0  0  0
   -4.4197   -0.0183   -0.0900 C   0  0  0  0  0  0  0  0  0  0  0  0
   -5.5095   -0.6748   -0.7112 C   0  0  0  0  0  0  0  0  0  0  0  0
   -5.4623   -2.0683   -1.0004 C   0  0  0  0  0  0  0  0  0  0  0  0
   -4.4929   -2.8409   -0.5291 N   0  0  0  0  0  0  0  0  0  0  0  0
   -4.5512    1.4179    0.0133 C   0  0  0  0  0  0  0  0  0  0  0  0
   -5.9114    1.9291   -0.0507 C   0  0  0  0  0  0  0  0  0  0  0  0
   -6.9175    1.2554   -0.5721 N   0  0  0  0  0  0  0  0  0  0  0  0
   -6.7109    0.0228   -1.0263 C   0  0  0  0  0  0  0  0  0  0  0  0
   -7.7406   -0.6197   -1.7360 C   0  0  0  0  0  0  0  0  0  0  0  0
   -7.6056   -1.9442   -2.1402 C   0  0  0  0  0  0  0  0  0  0  0  0
   -6.4876   -2.6702   -1.7649 C   0  0  0  0  0  0  0  0  0  0  0  0
   -3.5353    2.4096    0.0607 C   0  0  0  0  0  0  0  0  0  0  0  0
   -3.8838    3.7250    0.3879 C   0  0  0  0  0  0  0  0  0  0  0  0
   -5.2025    4.1455    0.5787 C   0  0  0  0  0  0  0  0  0  0  0  0
   -6.2197    3.2610    0.3288 C   0  0  0  0  0  0  0  0  0  0  0  0
   -2.0226    0.7585    1.5888 O   0  0  0  0  0  0  0  0  0  0  0  0
   -2.2747    2.1892   -0.2949 O   0  0  0  0  0  0  0  0  0  0  0  0
   -0.8818   -3.7763    2.5401 C   0  0  0  0  0  0  0  0  0  0  0  0
   -5.5352    5.5497    0.9783 C   0  0  0  0  0  0  0  0  0  0  0  0
   -8.7201   -2.5505   -2.9458 C   0  0  0  0  0  0  0  0  0  0  0  0
   -1.3128    1.5518    0.5878 B   0  0  0  0  0  0  0  0  0  0  0  0
    8.5379    2.9572    1.8608 O   0  0  0  0  0  0  0  0  0  0  0  0
    8.3921    0.8506    2.6235 O   0  0  0  0  0  0  0  0  0  0  0  0
    9.7750    0.8772    2.9696 C   0  0  0  0  0  0  0  0  0  0  0  0
   -0.3051   -4.0253   -0.7164 O   0  0  0  0  0  0  0  0  0  0  0  0
   -0.6613   -5.3673   -1.0385 C   0  0  0  0  0  0  0  0  0  0  0  0
    1.3774   -4.7956    0.5476 O   0  0  0  0  0  0  0  0  0  0  0  0
    0.0358   -3.3815    3.2136 O   0  0  0  0  0  0  0  0  0  0  0  0
   -1.1800   -5.0526    2.3368 O   0  0  0  0  0  0  0  0  0  0  0  0
   -0.3087   -6.0049    2.9488 C   0  0  0  0  0  0  0  0  0  0  0  0
   -9.7246   -1.9526   -3.2231 O   0  0  0  0  0  0  0  0  0  0  0  0
   -8.4505   -3.7995   -3.3077 O   0  0  0  0  0  0  0  0  0  0  0  0
   -9.4492   -4.4552   -4.0859 C   0  0  0  0  0  0  0  0  0  0  0  0
   -6.6598    5.9433    1.1339 O   0  0  0  0  0  0  0  0  0  0  0  0
   -4.4449    6.2989    1.1410 O   0  0  0  0  0  0  0  0  0  0  0  0
   -4.6709    7.6449    1.5485 C   0  0  0  0  0  0  0  0  0  0  0  0
    0.8805    7.5896   -1.3975 O   0  0  0  0  0  0  0  0  0  0  0  0
   -1.1323    6.8238   -0.7674 O   0  0  0  0  0  0  0  0  0  0  0  0
   -1.7335    8.0199   -1.2516 C   0  0  0  0  0  0  0  0  0  0  0  0
   -9.6121   -3.9167   -5.0209 H   0  0  0  0  0  0  0  0  0  0  0  0
  -10.3901   -4.4963   -3.5351 H   0  0  0  0  0  0  0  0  0  0  0  0
   -9.0728   -5.4557   -4.2797 H   0  0  0  0  0  0  0  0  0  0  0  0
   -3.6895    8.0996    1.6509 H   0  0  0  0  0  0  0  0  0  0  0  0
   -5.2054    7.6665    2.4996 H   0  0  0  0  0  0  0  0  0  0  0  0
   -5.2674    8.1719    0.8016 H   0  0  0  0  0  0  0  0  0  0  0  0
   -2.8056    7.8878   -1.1338 H   0  0  0  0  0  0  0  0  0  0  0  0
   -1.4764    8.1750   -2.3008 H   0  0  0  0  0  0  0  0  0  0  0  0
   -1.3835    8.8786   -0.6756 H   0  0  0  0  0  0  0  0  0  0  0  0
   -0.8016   -6.9691    2.8595 H   0  0  0  0  0  0  0  0  0  0  0  0
   -0.1445   -5.7469    3.9955 H   0  0  0  0  0  0  0  0  0  0  0  0
    0.6498   -6.0070    2.4249 H   0  0  0  0  0  0  0  0  0  0  0  0
   -0.9728   -5.8984   -0.1374 H   0  0  0  0  0  0  0  0  0  0  0  0
    0.1901   -5.8886   -1.4792 H   0  0  0  0  0  0  0  0  0  0  0  0
   -1.4800   -5.2990   -1.7493 H   0  0  0  0  0  0  0  0  0  0  0  0
    9.9983   -0.0961    3.3971 H   0  0  0  0  0  0  0  0  0  0  0  0
    9.9675    1.6704    3.6937 H   0  0  0  0  0  0  0  0  0  0  0  0
   10.3822    1.0572    2.0809 H   0  0  0  0  0  0  0  0  0  0  0  0
   -8.6452   -0.0743   -1.9638 H   0  0  0  0  0  0  0  0  0  0  0  0
   -6.3835   -3.7112   -2.0292 H   0  0  0  0  0  0  0  0  0  0  0  0
   -7.2538    3.5668    0.3501 H   0  0  0  0  0  0  0  0  0  0  0  0
   -2.9269   -4.3002    0.6972 H   0  0  0  0  0  0  0  0  0  0  0  0
   -3.0902    4.4473    0.4866 H   0  0  0  0  0  0  0  0  0  0  0  0
   -0.8546   -1.1447    2.7031 H   0  0  0  0  0  0  0  0  0  0  0  0
   -1.1611    4.7204    0.3366 H   0  0  0  0  0  0  0  0  0  0  0  0
   -0.6301   -1.6446   -0.7058 H   0  0  0  0  0  0  0  0  0  0  0  0
    2.8013   -2.8830    1.5216 H   0  0  0  0  0  0  0  0  0  0  0  0
    2.7664    5.9410   -0.7992 H   0  0  0  0  0  0  0  0  0  0  0  0
    6.3782    3.8200    0.9466 H   0  0  0  0  0  0  0  0  0  0  0  0
    6.2116   -0.2081    2.4017 H   0  0  0  0  0  0  0  0  0  0  0  0
  1  2  2  0  0  0  0
  1 96  1  0  0  0  0
  2  3  1  0  0  0  0
  3  4  2  0  0  0  0
  3  7  1  0  0  0  0
  4  5  1  0  0  0  0
  5  6  2  0  0  0  0
  5 99  1  0  0  0  0
  6  1  1  0  0  0  0
  6 24  1  0  0  0  0
  7  8  1  0  0  0  0
  7 11  2  0  0  0  0
  8  9  1  0  0  0  0
  9 10  2  0  0  0  0
 10  4  1  0  0  0  0
 11 12  1  0  0  0  0
 11 18  1  0  0  0  0
 12 13  2  0  0  0  0
 13 14  1  0  0  0  0
 14  8  1  0  0  0  0
 14 15  2  0  0  0  0
 15 16  1  0  0  0  0
 15101  1  0  0  0  0
 16 17  2  0  0  0  0
 16 26  1  0  0  0  0
 17  9  1  0  0  0  0
 17100  1  0  0  0  0
 18 19  2  0  0  0  0
 19 20  1  0  0  0  0
 19 97  1  0  0  0  0
 20 21  2  0  0  0  0
 20 25  1  0  0  0  0
 21 12  1  0  0  0  0
 21 98  1  0  0  0  0
 22  2  1  0  0  0  0
 23 18  1  0  0  0  0
 24 69  2  0  0  0  0
 24 70  1  0  0  0  0
 25 57  1  0  0  0  0
 25 59  2  0  0  0  0
 26 54  2  0  0  0  0
 26 55  1  0  0  0  0
 27 28  2  0  0  0  0
 27 95  1  0  0  0  0
 28 29  1  0  0  0  0
 28 48  1  0  0  0  0
 29 30  2  0  0  0  0
 29 33  1  0  0  0  0
 30 31  1  0  0  0  0
 31 32  2  0  0  0  0
 31 93  1  0  0  0  0
 32 27  1  0  0  0  0
 32 50  1  0  0  0  0
 33 37  2  0  0  0  0
 34 33  1  0  0  0  0
 34 35  1  0  0  0  0
 35 36  2  0  0  0  0
 36 30  1  0  0  0  0
 37 38  1  0  0  0  0
 37 44  1  0  0  0  0
 38 39  2  0  0  0  0
 39 40  1  0  0  0  0
 40 34  1  0  0  0  0
 40 41  2  0  0  0  0
 41 42  1  0  0  0  0
 41 90  1  0  0  0  0
 42 43  2  0  0  0  0
 42 52  1  0  0  0  0
 43 35  1  0  0  0  0
 43 91  1  0  0  0  0
 44 45  2  0  0  0  0
 44 49  1  0  0  0  0
 45 46  1  0  0  0  0
 45 94  1  0  0  0  0
 46 47  2  0  0  0  0
 46 51  1  0  0  0  0
 47 38  1  0  0  0  0
 47 92  1  0  0  0  0
 50 60  2  0  0  0  0
 50 61  1  0  0  0  0
 51 66  2  0  0  0  0
 51 67  1  0  0  0  0
 52 63  2  0  0  0  0
 52 64  1  0  0  0  0
 53 49  1  0  0  0  0
 53 22  1  0  0  0  0
 53 48  1  0  0  0  0
 53 23  1  0  0  0  0
 55 56  1  0  0  0  0
 56 87  1  0  0  0  0
 56 88  1  0  0  0  0
 56 89  1  0  0  0  0
 57 58  1  0  0  0  0
 58 84  1  0  0  0  0
 58 85  1  0  0  0  0
 58 86  1  0  0  0  0
 61 62  1  0  0  0  0
 62 81  1  0  0  0  0
 62 82  1  0  0  0  0
 62 83  1  0  0  0  0
 64 65  1  0  0  0  0
 65 72  1  0  0  0  0
 65 73  1  0  0  0  0
 65 74  1  0  0  0  0
 67 68  1  0  0  0  0
 68 75  1  0  0  0  0
 68 76  1  0  0  0  0
 68 77  1  0  0  0  0
 70 71  1  0  0  0  0
 71 78  1  0  0  0  0
 71 79  1  0  0  0  0
 71 80  1  0  0  0  0
M  CHG  1   1   1
M  END
