 energy: -400.847185580067 gnorm: 0.000311460545 xtb: 6.6.1 (8d0f1dd)
          11072412153D

202224  0     0  0            999 V2000
   -0.3803    5.0772    0.7971 C   0  0  0  0  0  0  0  0  0  0  0  0
   -0.1188    3.8452    1.3896 C   0  0  0  0  0  0  0  0  0  0  0  0
    1.2278    3.4159    1.5411 C   0  0  0  0  0  0  0  0  0  0  0  0
    2.2297    4.4273    1.3534 C   0  0  0  0  0  0  0  0  0  0  0  0
    1.9409    5.6413    0.7224 C   0  0  0  0  0  0  0  0  0  0  0  0
    0.6326    5.9495    0.4111 C   0  0  0  0  0  0  0  0  0  0  0  0
    1.7131    2.1046    1.9101 C   0  0  0  0  0  0  0  0  0  0  0  0
    3.0019    2.0906    2.4891 C   0  0  0  0  0  0  0  0  0  0  0  0
    3.7485    3.2982    2.6162 C   0  0  0  0  0  0  0  0  0  0  0  0
    3.4504    4.3423    1.9265 N   0  0  0  0  0  0  0  0  0  0  0  0
    1.1373    0.8119    1.6305 C   0  0  0  0  0  0  0  0  0  0  0  0
    1.8655   -0.3368    2.0933 C   0  0  0  0  0  0  0  0  0  0  0  0
    3.0617   -0.2736    2.7036 N   0  0  0  0  0  0  0  0  0  0  0  0
    3.6594    0.8738    2.8318 C   0  0  0  0  0  0  0  0  0  0  0  0
    5.0794    0.9060    3.1387 C   0  0  0  0  0  0  0  0  0  0  0  0
    5.7068    2.0608    3.4032 C   0  0  0  0  0  0  0  0  0  0  0  0
    4.8727    3.3042    3.6183 C   0  0  0  0  0  0  0  0  0  0  0  0
    0.0102    0.5346    0.7943 C   0  0  0  0  0  0  0  0  0  0  0  0
   -0.2550   -0.7782    0.3894 C   0  0  0  0  0  0  0  0  0  0  0  0
    0.4632   -1.8709    0.8731 C   0  0  0  0  0  0  0  0  0  0  0  0
    1.4732   -1.6503    1.7793 C   0  0  0  0  0  0  0  0  0  0  0  0
   -1.1517    3.1567    1.8921 O   0  0  0  0  0  0  0  0  0  0  0  0
   -0.8015    1.4565    0.2864 O   0  0  0  0  0  0  0  0  0  0  0  0
    0.3324    7.2538   -0.2451 C   0  0  0  0  0  0  0  0  0  0  0  0
    0.1586   -3.2628    0.4467 C   0  0  0  0  0  0  0  0  0  0  0  0
    7.1843    2.2266    3.4810 C   0  0  0  0  0  0  0  0  0  0  0  0
   -2.1805   -0.9674    2.2921 C   0  0  0  0  0  0  0  0  0  0  0  0
   -2.9151    0.0686    1.7088 C   0  0  0  0  0  0  0  0  0  0  0  0
   -4.0417   -0.2281    0.8937 C   0  0  0  0  0  0  0  0  0  0  0  0
   -4.2592   -1.6234    0.5931 C   0  0  0  0  0  0  0  0  0  0  0  0
   -3.4230   -2.6367    1.1191 C   0  0  0  0  0  0  0  0  0  0  0  0
   -2.4418   -2.3154    2.0186 C   0  0  0  0  0  0  0  0  0  0  0  0
   -5.0630    0.6991    0.4856 C   0  0  0  0  0  0  0  0  0  0  0  0
   -6.2532    0.1109   -0.0029 C   0  0  0  0  0  0  0  0  0  0  0  0
   -6.2950   -1.2630   -0.3744 C   0  0  0  0  0  0  0  0  0  0  0  0
   -5.2880   -2.0844   -0.1080 N   0  0  0  0  0  0  0  0  0  0  0  0
   -5.0929    2.1354    0.6155 C   0  0  0  0  0  0  0  0  0  0  0  0
   -6.4101    2.7379    0.6868 C   0  0  0  0  0  0  0  0  0  0  0  0
   -7.5261    2.1092    0.3572 N   0  0  0  0  0  0  0  0  0  0  0  0
   -7.4588    0.8641   -0.0996 C   0  0  0  0  0  0  0  0  0  0  0  0
   -8.6235    0.2670   -0.6193 C   0  0  0  0  0  0  0  0  0  0  0  0
   -8.6001   -1.0356   -1.1030 C   0  0  0  0  0  0  0  0  0  0  0  0
   -7.4478   -1.7958   -0.9955 C   0  0  0  0  0  0  0  0  0  0  0  0
   -3.9983    3.0370    0.5558 C   0  0  0  0  0  0  0  0  0  0  0  0
   -4.2107    4.3927    0.8316 C   0  0  0  0  0  0  0  0  0  0  0  0
   -5.4753    4.9294    1.0731 C   0  0  0  0  0  0  0  0  0  0  0  0
   -6.5740    4.1108    0.9890 C   0  0  0  0  0  0  0  0  0  0  0  0
   -2.5519    1.3011    2.0338 O   0  0  0  0  0  0  0  0  0  0  0  0
   -2.7862    2.6741    0.1409 O   0  0  0  0  0  0  0  0  0  0  0  0
   -1.6517   -3.3486    2.7416 C   0  0  0  0  0  0  0  0  0  0  0  0
   -5.6886    6.3890    1.3089 C   0  0  0  0  0  0  0  0  0  0  0  0
   -9.8638   -1.6003   -1.6791 C   0  0  0  0  0  0  0  0  0  0  0  0
   -1.8066    2.1523    1.0918 B   0  0  0  0  0  0  0  0  0  0  0  0
    7.7119    3.3065    3.3915 O   0  0  0  0  0  0  0  0  0  0  0  0
    7.8254    1.0758    3.6388 O   0  0  0  0  0  0  0  0  0  0  0  0
    9.2478    1.1747    3.7282 C   0  0  0  0  0  0  0  0  0  0  0  0
   -0.7875   -3.3117   -0.4930 O   0  0  0  0  0  0  0  0  0  0  0  0
   -1.1333   -4.6079   -0.9667 C   0  0  0  0  0  0  0  0  0  0  0  0
    0.7030   -4.2410    0.8969 O   0  0  0  0  0  0  0  0  0  0  0  0
   -0.8616   -3.0840    3.6157 O   0  0  0  0  0  0  0  0  0  0  0  0
   -1.9437   -4.5790    2.3438 O   0  0  0  0  0  0  0  0  0  0  0  0
   -1.2111   -5.6287    2.9704 C   0  0  0  0  0  0  0  0  0  0  0  0
  -10.9170   -1.0221   -1.6470 O   0  0  0  0  0  0  0  0  0  0  0  0
   -9.6733   -2.7960   -2.2293 O   0  0  0  0  0  0  0  0  0  0  0  0
  -10.8284   -3.4144   -2.7865 C   0  0  0  0  0  0  0  0  0  0  0  0
   -6.7512    6.9335    1.1943 O   0  0  0  0  0  0  0  0  0  0  0  0
   -4.5538    7.0309    1.6200 O   0  0  0  0  0  0  0  0  0  0  0  0
   -4.6905    8.4372    1.8006 C   0  0  0  0  0  0  0  0  0  0  0  0
    1.1460    7.9239   -0.8213 O   0  0  0  0  0  0  0  0  0  0  0  0
   -0.9569    7.5978   -0.1114 O   0  0  0  0  0  0  0  0  0  0  0  0
   -1.3342    8.8285   -0.7173 C   0  0  0  0  0  0  0  0  0  0  0  0
  -11.3137   -2.7416   -3.4957 H   0  0  0  0  0  0  0  0  0  0  0  0
  -11.5388   -3.6636   -1.9963 H   0  0  0  0  0  0  0  0  0  0  0  0
  -10.4813   -4.3143   -3.2871 H   0  0  0  0  0  0  0  0  0  0  0  0
   -3.6986    8.8158    2.0338 H   0  0  0  0  0  0  0  0  0  0  0  0
   -5.3915    8.6480    2.6107 H   0  0  0  0  0  0  0  0  0  0  0  0
   -5.0755    8.8964    0.8881 H   0  0  0  0  0  0  0  0  0  0  0  0
   -2.4164    8.8877   -0.6375 H   0  0  0  0  0  0  0  0  0  0  0  0
   -1.0225    8.8471   -1.7629 H   0  0  0  0  0  0  0  0  0  0  0  0
   -0.8631    9.6650   -0.1975 H   0  0  0  0  0  0  0  0  0  0  0  0
   -1.7422   -6.5493    2.7432 H   0  0  0  0  0  0  0  0  0  0  0  0
   -1.1650   -5.4530    4.0454 H   0  0  0  0  0  0  0  0  0  0  0  0
   -0.1996   -5.6500    2.5575 H   0  0  0  0  0  0  0  0  0  0  0  0
   -1.5842   -5.1919   -0.1622 H   0  0  0  0  0  0  0  0  0  0  0  0
   -0.2444   -5.1284   -1.3280 H   0  0  0  0  0  0  0  0  0  0  0  0
   -1.8429   -4.4540   -1.7749 H   0  0  0  0  0  0  0  0  0  0  0  0
    9.6135    0.1574    3.8341 H   0  0  0  0  0  0  0  0  0  0  0  0
    9.5218    1.7823    4.5932 H   0  0  0  0  0  0  0  0  0  0  0  0
    9.6499    1.6386    2.8265 H   0  0  0  0  0  0  0  0  0  0  0  0
   -9.5392    0.8392   -0.6483 H   0  0  0  0  0  0  0  0  0  0  0  0
   -7.4167   -2.8104   -1.3564 H   0  0  0  0  0  0  0  0  0  0  0  0
   -7.5728    4.5070    1.0790 H   0  0  0  0  0  0  0  0  0  0  0  0
   -3.6488   -3.6557    0.8538 H   0  0  0  0  0  0  0  0  0  0  0  0
   -3.3517    5.0435    0.8209 H   0  0  0  0  0  0  0  0  0  0  0  0
   -1.4044   -0.7019    2.9973 H   0  0  0  0  0  0  0  0  0  0  0  0
   -1.4082    5.3569    0.6407 H   0  0  0  0  0  0  0  0  0  0  0  0
   -1.0396   -0.9215   -0.3372 H   0  0  0  0  0  0  0  0  0  0  0  0
    2.0505   -2.4684    2.1789 H   0  0  0  0  0  0  0  0  0  0  0  0
    2.7343    6.3524    0.5609 H   0  0  0  0  0  0  0  0  0  0  0  0
    5.4815    4.2106    3.5415 H   0  0  0  0  0  0  0  0  0  0  0  0
    5.6180   -0.0236    3.0453 H   0  0  0  0  0  0  0  0  0  0  0  0
    0.1854    3.8692    5.4013 C   0  0  0  0  0  0  0  0  0  0  0  0
    0.7023    2.6776    5.8920 C   0  0  0  0  0  0  0  0  0  0  0  0
    2.0813    2.3812    5.7413 C   0  0  0  0  0  0  0  0  0  0  0  0
    2.8874    3.3639    5.0989 C   0  0  0  0  0  0  0  0  0  0  0  0
    2.3397    4.5380    4.5962 C   0  0  0  0  0  0  0  0  0  0  0  0
    0.9811    4.7757    4.7176 C   0  0  0  0  0  0  0  0  0  0  0  0
    2.7390    1.2188    6.2895 C   0  0  0  0  0  0  0  0  0  0  0  0
    4.1099    1.4307    6.5912 C   0  0  0  0  0  0  0  0  0  0  0  0
    4.8674    2.4290    5.9339 C   0  0  0  0  0  0  0  0  0  0  0  0
    4.2477    3.1605    4.9523 N   0  0  0  0  0  0  0  0  0  0  0  0
    2.2282   -0.0847    6.5750 C   0  0  0  0  0  0  0  0  0  0  0  0
    3.0419   -0.9168    7.4343 C   0  0  0  0  0  0  0  0  0  0  0  0
    4.1960   -0.5364    7.9563 N   0  0  0  0  0  0  0  0  0  0  0  0
    4.7827    0.5664    7.5068 C   0  0  0  0  0  0  0  0  0  0  0  0
    6.1209    0.8189    7.8623 C   0  0  0  0  0  0  0  0  0  0  0  0
    6.8214    1.8235    7.2255 C   0  0  0  0  0  0  0  0  0  0  0  0
    6.2116    2.6069    6.2431 C   0  0  0  0  0  0  0  0  0  0  0  0
    1.1073   -0.7156    5.9589 C   0  0  0  0  0  0  0  0  0  0  0  0
    0.9459   -2.1128    6.0639 C   0  0  0  0  0  0  0  0  0  0  0  0
    1.7338   -2.8826    6.9254 C   0  0  0  0  0  0  0  0  0  0  0  0
    2.7021   -2.2693    7.6815 C   0  0  0  0  0  0  0  0  0  0  0  0
   -0.1135    1.8436    6.5388 O   0  0  0  0  0  0  0  0  0  0  0  0
    0.2446   -0.0907    5.1795 O   0  0  0  0  0  0  0  0  0  0  0  0
    0.4188    5.9813    4.0462 C   0  0  0  0  0  0  0  0  0  0  0  0
    1.6053   -4.3668    7.0303 C   0  0  0  0  0  0  0  0  0  0  0  0
    8.2745    2.0478    7.5003 C   0  0  0  0  0  0  0  0  0  0  0  0
   -1.3312   -1.9537    7.4928 C   0  0  0  0  0  0  0  0  0  0  0  0
   -1.9725   -1.1139    6.5775 C   0  0  0  0  0  0  0  0  0  0  0  0
   -2.8826   -1.6370    5.6249 C   0  0  0  0  0  0  0  0  0  0  0  0
   -3.0189   -3.0774    5.6250 C   0  0  0  0  0  0  0  0  0  0  0  0
   -2.3247   -3.9002    6.5531 C   0  0  0  0  0  0  0  0  0  0  0  0
   -1.5279   -3.3404    7.5126 C   0  0  0  0  0  0  0  0  0  0  0  0
   -3.7599   -0.8787    4.7621 C   0  0  0  0  0  0  0  0  0  0  0  0
   -4.7550   -1.6462    4.1034 C   0  0  0  0  0  0  0  0  0  0  0  0
   -4.6950   -3.0693    4.0718 C   0  0  0  0  0  0  0  0  0  0  0  0
   -3.8197   -3.7465    4.8092 N   0  0  0  0  0  0  0  0  0  0  0  0
   -3.8469    0.5521    4.5560 C   0  0  0  0  0  0  0  0  0  0  0  0
   -5.1327    1.0442    4.0911 C   0  0  0  0  0  0  0  0  0  0  0  0
   -6.0713    0.2807    3.5593 N   0  0  0  0  0  0  0  0  0  0  0  0
   -5.8566   -1.0264    3.4501 C   0  0  0  0  0  0  0  0  0  0  0  0
   -6.7846   -1.7930    2.7250 C   0  0  0  0  0  0  0  0  0  0  0  0
   -6.6220   -3.1644    2.5953 C   0  0  0  0  0  0  0  0  0  0  0  0
   -5.5908   -3.8031    3.2679 C   0  0  0  0  0  0  0  0  0  0  0  0
   -2.8221    1.5445    4.6007 C   0  0  0  0  0  0  0  0  0  0  0  0
   -3.1663    2.8974    4.5158 C   0  0  0  0  0  0  0  0  0  0  0  0
   -4.4756    3.3469    4.3490 C   0  0  0  0  0  0  0  0  0  0  0  0
   -5.4534    2.4249    4.0876 C   0  0  0  0  0  0  0  0  0  0  0  0
   -1.6951    0.1773    6.6973 O   0  0  0  0  0  0  0  0  0  0  0  0
   -1.5216    1.2851    4.6136 O   0  0  0  0  0  0  0  0  0  0  0  0
   -0.8322   -4.1023    8.5934 C   0  0  0  0  0  0  0  0  0  0  0  0
   -4.8227    4.7946    4.4437 C   0  0  0  0  0  0  0  0  0  0  0  0
   -7.5901   -3.8954    1.7259 C   0  0  0  0  0  0  0  0  0  0  0  0
   -0.7897    0.8236    5.7633 B   0  0  0  0  0  0  0  0  0  0  0  0
    9.0210    2.5730    6.7136 O   0  0  0  0  0  0  0  0  0  0  0  0
    8.6361    1.5849    8.6902 O   0  0  0  0  0  0  0  0  0  0  0  0
   10.0092    1.7346    9.0376 C   0  0  0  0  0  0  0  0  0  0  0  0
    0.8423   -4.8837    6.0671 O   0  0  0  0  0  0  0  0  0  0  0  0
    0.7347   -6.3038    6.0213 C   0  0  0  0  0  0  0  0  0  0  0  0
    2.1659   -5.0207    7.8724 O   0  0  0  0  0  0  0  0  0  0  0  0
   -0.1453   -3.5664    9.4254 O   0  0  0  0  0  0  0  0  0  0  0  0
   -1.0552   -5.4118    8.5352 O   0  0  0  0  0  0  0  0  0  0  0  0
   -0.3943   -6.1911    9.5327 C   0  0  0  0  0  0  0  0  0  0  0  0
   -8.4161   -3.3345    1.0470 O   0  0  0  0  0  0  0  0  0  0  0  0
   -7.4289   -5.2119    1.7708 O   0  0  0  0  0  0  0  0  0  0  0  0
   -8.3161   -5.9802    0.9643 C   0  0  0  0  0  0  0  0  0  0  0  0
   -5.7412    5.3126    3.8598 O   0  0  0  0  0  0  0  0  0  0  0  0
   -4.0155    5.4276    5.2896 O   0  0  0  0  0  0  0  0  0  0  0  0
   -4.3183    6.7904    5.5654 C   0  0  0  0  0  0  0  0  0  0  0  0
    1.0930    6.8098    3.4882 O   0  0  0  0  0  0  0  0  0  0  0  0
   -0.9139    5.9987    4.0758 O   0  0  0  0  0  0  0  0  0  0  0  0
   -1.5542    7.0656    3.3860 C   0  0  0  0  0  0  0  0  0  0  0  0
   -8.1924   -5.7187   -0.0880 H   0  0  0  0  0  0  0  0  0  0  0  0
   -9.3508   -5.7904    1.2548 H   0  0  0  0  0  0  0  0  0  0  0  0
   -8.0561   -7.0213    1.1347 H   0  0  0  0  0  0  0  0  0  0  0  0
   -3.4370    7.2082    6.0444 H   0  0  0  0  0  0  0  0  0  0  0  0
   -5.1765    6.8505    6.2376 H   0  0  0  0  0  0  0  0  0  0  0  0
   -4.5545    7.3236    4.6438 H   0  0  0  0  0  0  0  0  0  0  0  0
   -1.6574    7.9239    4.0535 H   0  0  0  0  0  0  0  0  0  0  0  0
   -2.5301    6.6971    3.0791 H   0  0  0  0  0  0  0  0  0  0  0  0
   -0.9648    7.3585    2.5156 H   0  0  0  0  0  0  0  0  0  0  0  0
   -0.6945   -7.2211    9.3609 H   0  0  0  0  0  0  0  0  0  0  0  0
   -0.6964   -5.8612   10.5275 H   0  0  0  0  0  0  0  0  0  0  0  0
    0.6874   -6.0758    9.4355 H   0  0  0  0  0  0  0  0  0  0  0  0
    1.5135   -6.7562    6.6382 H   0  0  0  0  0  0  0  0  0  0  0  0
    0.8512   -6.6057    4.9821 H   0  0  0  0  0  0  0  0  0  0  0  0
   -0.2457   -6.5998    6.3963 H   0  0  0  0  0  0  0  0  0  0  0  0
   10.0868    1.4699   10.0885 H   0  0  0  0  0  0  0  0  0  0  0  0
   10.3319    2.7639    8.8725 H   0  0  0  0  0  0  0  0  0  0  0  0
   10.6252    1.0697    8.4292 H   0  0  0  0  0  0  0  0  0  0  0  0
   -7.6289   -1.2985    2.2697 H   0  0  0  0  0  0  0  0  0  0  0  0
   -5.4707   -4.8733    3.2185 H   0  0  0  0  0  0  0  0  0  0  0  0
   -6.4618    2.7134    3.8373 H   0  0  0  0  0  0  0  0  0  0  0  0
   -2.5116   -4.9606    6.5065 H   0  0  0  0  0  0  0  0  0  0  0  0
   -2.3627    3.6125    4.5384 H   0  0  0  0  0  0  0  0  0  0  0  0
   -0.7216   -1.4963    8.2583 H   0  0  0  0  0  0  0  0  0  0  0  0
   -0.8534    4.0803    5.5822 H   0  0  0  0  0  0  0  0  0  0  0  0
    0.2463   -2.5801    5.3883 H   0  0  0  0  0  0  0  0  0  0  0  0
    3.3050   -2.8316    8.3772 H   0  0  0  0  0  0  0  0  0  0  0  0
    2.9630    5.2865    4.1337 H   0  0  0  0  0  0  0  0  0  0  0  0
    6.7913    3.3762    5.7573 H   0  0  0  0  0  0  0  0  0  0  0  0
    6.5893    0.1801    8.5924 H   0  0  0  0  0  0  0  0  0  0  0  0
  1  2  2  0  0  0  0
  1 96  1  0  0  0  0
  2  3  1  0  0  0  0
  3  4  2  0  0  0  0
  3  7  1  0  0  0  0
  4  5  1  0  0  0  0
  5  6  2  0  0  0  0
  5 99  1  0  0  0  0
  6  1  1  0  0  0  0
  6 24  1  0  0  0  0
  7  8  1  0  0  0  0
  7 11  2  0  0  0  0
  8  9  1  0  0  0  0
  9 10  2  0  0  0  0
 10  4  1  0  0  0  0
 11 12  1  0  0  0  0
 11 18  1  0  0  0  0
 12 13  2  0  0  0  0
 13 14  1  0  0  0  0
 14  8  1  0  0  0  0
 14 15  2  0  0  0  0
 15 16  1  0  0  0  0
 15101  1  0  0  0  0
 16 17  2  0  0  0  0
 16 26  1  0  0  0  0
 17  9  1  0  0  0  0
 17100  1  0  0  0  0
 18 19  2  0  0  0  0
 19 20  1  0  0  0  0
 19 97  1  0  0  0  0
 20 21  2  0  0  0  0
 20 25  1  0  0  0  0
 21 12  1  0  0  0  0
 21 98  1  0  0  0  0
 22  2  1  0  0  0  0
 23 18  1  0  0  0  0
 24 69  2  0  0  0  0
 24 70  1  0  0  0  0
 25 57  1  0  0  0  0
 25 59  2  0  0  0  0
 26 54  2  0  0  0  0
 26 55  1  0  0  0  0
 27 28  2  0  0  0  0
 27 95  1  0  0  0  0
 28 29  1  0  0  0  0
 28 48  1  0  0  0  0
 29 30  2  0  0  0  0
 29 33  1  0  0  0  0
 30 31  1  0  0  0  0
 31 32  2  0  0  0  0
 31 93  1  0  0  0  0
 32 27  1  0  0  0  0
 32 50  1  0  0  0  0
 33 37  2  0  0  0  0
 34 33  1  0  0  0  0
 34 35  1  0  0  0  0
 35 36  2  0  0  0  0
 36 30  1  0  0  0  0
 37 38  1  0  0  0  0
 37 44  1  0  0  0  0
 38 39  2  0  0  0  0
 39 40  1  0  0  0  0
 40 34  1  0  0  0  0
 40 41  2  0  0  0  0
 41 42  1  0  0  0  0
 41 90  1  0  0  0  0
 42 43  2  0  0  0  0
 42 52  1  0  0  0  0
 43 35  1  0  0  0  0
 43 91  1  0  0  0  0
 44 45  2  0  0  0  0
 44 49  1  0  0  0  0
 45 46  1  0  0  0  0
 45 94  1  0  0  0  0
 46 47  2  0  0  0  0
 46 51  1  0  0  0  0
 47 38  1  0  0  0  0
 47 92  1  0  0  0  0
 50 60  2  0  0  0  0
 50 61  1  0  0  0  0
 51 66  2  0  0  0  0
 51 67  1  0  0  0  0
 52 63  2  0  0  0  0
 52 64  1  0  0  0  0
 53 49  1  0  0  0  0
 53 22  1  0  0  0  0
 53 48  1  0  0  0  0
 53 23  1  0  0  0  0
 55 56  1  0  0  0  0
 56 87  1  0  0  0  0
 56 88  1  0  0  0  0
 56 89  1  0  0  0  0
 57 58  1  0  0  0  0
 58 84  1  0  0  0  0
 58 85  1  0  0  0  0
 58 86  1  0  0  0  0
 61 62  1  0  0  0  0
 62 81  1  0  0  0  0
 62 82  1  0  0  0  0
 62 83  1  0  0  0  0
 64 65  1  0  0  0  0
 65 72  1  0  0  0  0
 65 73  1  0  0  0  0
 65 74  1  0  0  0  0
 67 68  1  0  0  0  0
 68 75  1  0  0  0  0
 68 76  1  0  0  0  0
 68 77  1  0  0  0  0
 70 71  1  0  0  0  0
 71 78  1  0  0  0  0
 71 79  1  0  0  0  0
 71 80  1  0  0  0  0
102103  2  0  0  0  0
102197  1  0  0  0  0
103104  1  0  0  0  0
104105  2  0  0  0  0
104108  1  0  0  0  0
105106  1  0  0  0  0
106107  2  0  0  0  0
106200  1  0  0  0  0
107102  1  0  0  0  0
107125  1  0  0  0  0
108109  1  0  0  0  0
108112  2  0  0  0  0
109110  1  0  0  0  0
110111  2  0  0  0  0
111105  1  0  0  0  0
112113  1  0  0  0  0
112119  1  0  0  0  0
113114  2  0  0  0  0
114115  1  0  0  0  0
115109  1  0  0  0  0
115116  2  0  0  0  0
116117  1  0  0  0  0
116202  1  0  0  0  0
117118  2  0  0  0  0
117127  1  0  0  0  0
118110  1  0  0  0  0
118201  1  0  0  0  0
119120  2  0  0  0  0
120121  1  0  0  0  0
120198  1  0  0  0  0
121122  2  0  0  0  0
121126  1  0  0  0  0
122113  1  0  0  0  0
122199  1  0  0  0  0
123103  1  0  0  0  0
124119  1  0  0  0  0
125170  2  0  0  0  0
125171  1  0  0  0  0
126158  1  0  0  0  0
126160  2  0  0  0  0
127155  2  0  0  0  0
127156  1  0  0  0  0
128129  2  0  0  0  0
128196  1  0  0  0  0
129130  1  0  0  0  0
129149  1  0  0  0  0
130131  2  0  0  0  0
130134  1  0  0  0  0
131132  1  0  0  0  0
132133  2  0  0  0  0
132194  1  0  0  0  0
133128  1  0  0  0  0
133151  1  0  0  0  0
134138  2  0  0  0  0
135134  1  0  0  0  0
135136  1  0  0  0  0
136137  2  0  0  0  0
137131  1  0  0  0  0
138139  1  0  0  0  0
138145  1  0  0  0  0
139140  2  0  0  0  0
140141  1  0  0  0  0
141135  1  0  0  0  0
141142  2  0  0  0  0
142143  1  0  0  0  0
142191  1  0  0  0  0
143144  2  0  0  0  0
143153  1  0  0  0  0
144136  1  0  0  0  0
144192  1  0  0  0  0
145146  2  0  0  0  0
145150  1  0  0  0  0
146147  1  0  0  0  0
146195  1  0  0  0  0
147148  2  0  0  0  0
147152  1  0  0  0  0
148139  1  0  0  0  0
148193  1  0  0  0  0
151161  2  0  0  0  0
151162  1  0  0  0  0
152167  2  0  0  0  0
152168  1  0  0  0  0
153164  2  0  0  0  0
153165  1  0  0  0  0
154150  1  0  0  0  0
154123  1  0  0  0  0
154149  1  0  0  0  0
154124  1  0  0  0  0
156157  1  0  0  0  0
157188  1  0  0  0  0
157189  1  0  0  0  0
157190  1  0  0  0  0
158159  1  0  0  0  0
159185  1  0  0  0  0
159186  1  0  0  0  0
159187  1  0  0  0  0
162163  1  0  0  0  0
163182  1  0  0  0  0
163183  1  0  0  0  0
163184  1  0  0  0  0
165166  1  0  0  0  0
166173  1  0  0  0  0
166174  1  0  0  0  0
166175  1  0  0  0  0
168169  1  0  0  0  0
169176  1  0  0  0  0
169177  1  0  0  0  0
169178  1  0  0  0  0
171172  1  0  0  0  0
172179  1  0  0  0  0
172180  1  0  0  0  0
172181  1  0  0  0  0
M  CHG  1   1   1
M  END
