 energy: -401.220140943615 gnorm: 0.000824768189 xtb: 6.7.1 (edcfbbe)
          02242509553D

202224  0     0  0            999 V2000
   -1.0152    5.0082    0.8678 C   0  0  0  0  0  0  0  0  0  0  0  0
   -0.5567    3.8444    1.4712 C   0  0  0  0  0  0  0  0  0  0  0  0
    0.8385    3.6323    1.5991 C   0  0  0  0  0  0  0  0  0  0  0  0
    1.6996    4.7577    1.3149 C   0  0  0  0  0  0  0  0  0  0  0  0
    1.1937    5.9107    0.6714 C   0  0  0  0  0  0  0  0  0  0  0  0
   -0.1541    6.0238    0.4379 C   0  0  0  0  0  0  0  0  0  0  0  0
    1.4822    2.4244    2.0396 C   0  0  0  0  0  0  0  0  0  0  0  0
    2.7847    2.5929    2.5607 C   0  0  0  0  0  0  0  0  0  0  0  0
    3.4865    3.8232    2.3909 C   0  0  0  0  0  0  0  0  0  0  0  0
    2.9743    4.8197    1.6785 N   0  0  0  0  0  0  0  0  0  0  0  0
    1.0504    1.0631    1.8662 C   0  0  0  0  0  0  0  0  0  0  0  0
    1.8600    0.0444    2.4943 C   0  0  0  0  0  0  0  0  0  0  0  0
    2.9386    0.2898    3.2272 N   0  0  0  0  0  0  0  0  0  0  0  0
    3.4564    1.5156    3.2041 C   0  0  0  0  0  0  0  0  0  0  0  0
    4.7376    1.7110    3.7590 C   0  0  0  0  0  0  0  0  0  0  0  0
    5.3970    2.9224    3.6001 C   0  0  0  0  0  0  0  0  0  0  0  0
    4.7912    3.9600    2.9045 C   0  0  0  0  0  0  0  0  0  0  0  0
    0.0559    0.6117    0.9539 C   0  0  0  0  0  0  0  0  0  0  0  0
    0.0305   -0.7365    0.5810 C   0  0  0  0  0  0  0  0  0  0  0  0
    0.8347   -1.7072    1.1959 C   0  0  0  0  0  0  0  0  0  0  0  0
    1.6600   -1.3329    2.2229 C   0  0  0  0  0  0  0  0  0  0  0  0
   -1.4523    2.9841    1.9721 O   0  0  0  0  0  0  0  0  0  0  0  0
   -0.8187    1.3922    0.3197 O   0  0  0  0  0  0  0  0  0  0  0  0
   -0.6942    7.2544   -0.2028 C   0  0  0  0  0  0  0  0  0  0  0  0
    0.8070   -3.1242    0.7483 C   0  0  0  0  0  0  0  0  0  0  0  0
    6.7843    3.1425    4.1096 C   0  0  0  0  0  0  0  0  0  0  0  0
   -2.0861   -1.2182    2.0703 C   0  0  0  0  0  0  0  0  0  0  0  0
   -2.8643   -0.2439    1.4417 C   0  0  0  0  0  0  0  0  0  0  0  0
   -3.8286   -0.6187    0.4663 C   0  0  0  0  0  0  0  0  0  0  0  0
   -3.8477   -2.0108    0.0893 C   0  0  0  0  0  0  0  0  0  0  0  0
   -2.9966   -2.9555    0.7054 C   0  0  0  0  0  0  0  0  0  0  0  0
   -2.1805   -2.5748    1.7368 C   0  0  0  0  0  0  0  0  0  0  0  0
   -4.8944    0.2049   -0.0412 C   0  0  0  0  0  0  0  0  0  0  0  0
   -5.9193   -0.4719   -0.7401 C   0  0  0  0  0  0  0  0  0  0  0  0
   -5.7388   -1.8136   -1.1786 C   0  0  0  0  0  0  0  0  0  0  0  0
   -4.6988   -2.5389   -0.7860 N   0  0  0  0  0  0  0  0  0  0  0  0
   -5.1361    1.6010    0.2034 C   0  0  0  0  0  0  0  0  0  0  0  0
   -6.5188    2.0228    0.1591 C   0  0  0  0  0  0  0  0  0  0  0  0
   -7.4775    1.3236   -0.4327 N   0  0  0  0  0  0  0  0  0  0  0  0
   -7.1760    0.1544   -0.9892 C   0  0  0  0  0  0  0  0  0  0  0  0
   -8.1513   -0.5115   -1.7535 C   0  0  0  0  0  0  0  0  0  0  0  0
   -7.9033   -1.7765   -2.2737 C   0  0  0  0  0  0  0  0  0  0  0  0
   -6.7112   -2.4253   -1.9967 C   0  0  0  0  0  0  0  0  0  0  0  0
   -4.1710    2.6188    0.4171 C   0  0  0  0  0  0  0  0  0  0  0  0
   -4.5880    3.8442    0.9274 C   0  0  0  0  0  0  0  0  0  0  0  0
   -5.9384    4.1678    1.0942 C   0  0  0  0  0  0  0  0  0  0  0  0
   -6.8996    3.2823    0.6734 C   0  0  0  0  0  0  0  0  0  0  0  0
   -2.7013    0.9991    1.8836 O   0  0  0  0  0  0  0  0  0  0  0  0
   -2.8910    2.4613    0.0583 O   0  0  0  0  0  0  0  0  0  0  0  0
   -1.4029   -3.5525    2.5340 C   0  0  0  0  0  0  0  0  0  0  0  0
   -6.3622    5.4949    1.6242 C   0  0  0  0  0  0  0  0  0  0  0  0
   -8.9701   -2.4310   -3.0818 C   0  0  0  0  0  0  0  0  0  0  0  0
   -1.9561    1.9716    1.0654 B   0  0  0  0  0  0  0  0  0  0  0  0
    7.4083    4.1533    3.9206 O   0  0  0  0  0  0  0  0  0  0  0  0
    7.2626    2.0777    4.7594 O   0  0  0  0  0  0  0  0  0  0  0  0
    8.6107    2.1685    5.2136 C   0  0  0  0  0  0  0  0  0  0  0  0
    0.0549   -3.2902   -0.3442 O   0  0  0  0  0  0  0  0  0  0  0  0
   -0.0208   -4.6087   -0.8685 C   0  0  0  0  0  0  0  0  0  0  0  0
    1.4140   -4.0222    1.2794 O   0  0  0  0  0  0  0  0  0  0  0  0
   -0.7689   -3.2621    3.5191 O   0  0  0  0  0  0  0  0  0  0  0  0
   -1.5057   -4.7910    2.0551 O   0  0  0  0  0  0  0  0  0  0  0  0
   -0.7762   -5.7834    2.7654 C   0  0  0  0  0  0  0  0  0  0  0  0
   -9.9071   -1.8555   -3.5682 O   0  0  0  0  0  0  0  0  0  0  0  0
   -8.7686   -3.7521   -3.2027 O   0  0  0  0  0  0  0  0  0  0  0  0
   -9.7432   -4.4577   -3.9596 C   0  0  0  0  0  0  0  0  0  0  0  0
   -7.5111    5.8159    1.7843 O   0  0  0  0  0  0  0  0  0  0  0  0
   -5.3249    6.3055    1.8627 O   0  0  0  0  0  0  0  0  0  0  0  0
   -5.6585    7.5806    2.3950 C   0  0  0  0  0  0  0  0  0  0  0  0
   -0.0268    8.0845   -0.7639 O   0  0  0  0  0  0  0  0  0  0  0  0
   -2.0247    7.3471   -0.0636 O   0  0  0  0  0  0  0  0  0  0  0  0
   -2.6382    8.4857   -0.6494 C   0  0  0  0  0  0  0  0  0  0  0  0
   -9.7895   -4.0641   -4.9767 H   0  0  0  0  0  0  0  0  0  0  0  0
  -10.7272   -4.3546   -3.4986 H   0  0  0  0  0  0  0  0  0  0  0  0
   -9.4294   -5.4984   -3.9653 H   0  0  0  0  0  0  0  0  0  0  0  0
   -4.7442    8.1698    2.3745 H   0  0  0  0  0  0  0  0  0  0  0  0
   -6.0277    7.4622    3.4155 H   0  0  0  0  0  0  0  0  0  0  0  0
   -6.4354    8.0517    1.7894 H   0  0  0  0  0  0  0  0  0  0  0  0
   -3.7090    8.3552   -0.5147 H   0  0  0  0  0  0  0  0  0  0  0  0
   -2.3890    8.5484   -1.7103 H   0  0  0  0  0  0  0  0  0  0  0  0
   -2.2951    9.3975   -0.1555 H   0  0  0  0  0  0  0  0  0  0  0  0
   -1.0796   -6.7418    2.3510 H   0  0  0  0  0  0  0  0  0  0  0  0
   -1.0131   -5.7192    3.8269 H   0  0  0  0  0  0  0  0  0  0  0  0
    0.2936   -5.6141    2.6210 H   0  0  0  0  0  0  0  0  0  0  0  0
   -0.6594   -5.2246   -0.2329 H   0  0  0  0  0  0  0  0  0  0  0  0
    0.9748   -5.0546   -0.9168 H   0  0  0  0  0  0  0  0  0  0  0  0
   -0.4511   -4.5151   -1.8622 H   0  0  0  0  0  0  0  0  0  0  0  0
    8.9693    1.1466    5.3127 H   0  0  0  0  0  0  0  0  0  0  0  0
    8.6577    2.6776    6.1776 H   0  0  0  0  0  0  0  0  0  0  0  0
    9.2120    2.7210    4.4896 H   0  0  0  0  0  0  0  0  0  0  0  0
   -9.1038   -0.0336   -1.9191 H   0  0  0  0  0  0  0  0  0  0  0  0
   -6.5115   -3.4189   -2.3650 H   0  0  0  0  0  0  0  0  0  0  0  0
   -7.9456    3.5427    0.6844 H   0  0  0  0  0  0  0  0  0  0  0  0
   -3.0886   -3.9825    0.3956 H   0  0  0  0  0  0  0  0  0  0  0  0
   -3.8410    4.5730    1.1904 H   0  0  0  0  0  0  0  0  0  0  0  0
   -1.4405   -0.9017    2.8773 H   0  0  0  0  0  0  0  0  0  0  0  0
   -2.0744    5.1223    0.7169 H   0  0  0  0  0  0  0  0  0  0  0  0
   -0.6148   -1.0103   -0.2394 H   0  0  0  0  0  0  0  0  0  0  0  0
    2.2698   -2.0521    2.7453 H   0  0  0  0  0  0  0  0  0  0  0  0
    1.8799    6.7071    0.4327 H   0  0  0  0  0  0  0  0  0  0  0  0
    5.3201    4.8868    2.7445 H   0  0  0  0  0  0  0  0  0  0  0  0
    5.2078    0.8835    4.2661 H   0  0  0  0  0  0  0  0  0  0  0  0
    0.5440    3.8600    5.0346 C   0  0  0  0  0  0  0  0  0  0  0  0
    0.8897    2.7365    5.7793 C   0  0  0  0  0  0  0  0  0  0  0  0
    2.2565    2.4783    6.0627 C   0  0  0  0  0  0  0  0  0  0  0  0
    3.1774    3.5595    5.7978 C   0  0  0  0  0  0  0  0  0  0  0  0
    2.7714    4.7193    5.1020 C   0  0  0  0  0  0  0  0  0  0  0  0
    1.4643    4.8582    4.7059 C   0  0  0  0  0  0  0  0  0  0  0  0
    2.7787    1.2913    6.6861 C   0  0  0  0  0  0  0  0  0  0  0  0
    4.0576    1.4502    7.2747 C   0  0  0  0  0  0  0  0  0  0  0  0
    4.8450    2.6146    7.0372 C   0  0  0  0  0  0  0  0  0  0  0  0
    4.4280    3.5916    6.2421 N   0  0  0  0  0  0  0  0  0  0  0  0
    2.2181   -0.0434    6.7445 C   0  0  0  0  0  0  0  0  0  0  0  0
    2.8716   -0.9556    7.6584 C   0  0  0  0  0  0  0  0  0  0  0  0
    3.9530   -0.6779    8.3721 N   0  0  0  0  0  0  0  0  0  0  0  0
    4.6049    0.4537    8.1308 C   0  0  0  0  0  0  0  0  0  0  0  0
    5.8639    0.6297    8.7344 C   0  0  0  0  0  0  0  0  0  0  0  0
    6.6266    1.7541    8.4528 C   0  0  0  0  0  0  0  0  0  0  0  0
    6.1250    2.7360    7.6114 C   0  0  0  0  0  0  0  0  0  0  0  0
    1.2083   -0.6232    5.9218 C   0  0  0  0  0  0  0  0  0  0  0  0
    1.0009   -2.0139    5.9305 C   0  0  0  0  0  0  0  0  0  0  0  0
    1.6138   -2.8553    6.8670 C   0  0  0  0  0  0  0  0  0  0  0  0
    2.4704   -2.3057    7.7835 C   0  0  0  0  0  0  0  0  0  0  0  0
   -0.0731    1.9860    6.3169 O   0  0  0  0  0  0  0  0  0  0  0  0
    0.4543    0.0530    5.0491 O   0  0  0  0  0  0  0  0  0  0  0  0
    1.0374    6.1294    4.0600 C   0  0  0  0  0  0  0  0  0  0  0  0
    1.4359   -4.3325    6.9278 C   0  0  0  0  0  0  0  0  0  0  0  0
    8.0040    1.9174    8.9974 C   0  0  0  0  0  0  0  0  0  0  0  0
   -1.4963   -1.9662    7.1964 C   0  0  0  0  0  0  0  0  0  0  0  0
   -1.9781   -1.0313    6.2791 C   0  0  0  0  0  0  0  0  0  0  0  0
   -2.8998   -1.4447    5.2703 C   0  0  0  0  0  0  0  0  0  0  0  0
   -3.1232   -2.8706    5.1672 C   0  0  0  0  0  0  0  0  0  0  0  0
   -2.5267   -3.7904    6.0657 C   0  0  0  0  0  0  0  0  0  0  0  0
   -1.7784   -3.3333    7.1169 C   0  0  0  0  0  0  0  0  0  0  0  0
   -3.7384   -0.6077    4.4471 C   0  0  0  0  0  0  0  0  0  0  0  0
   -4.7564   -1.2603    3.7114 C   0  0  0  0  0  0  0  0  0  0  0  0
   -4.7558   -2.6752    3.5671 C   0  0  0  0  0  0  0  0  0  0  0  0
   -3.9339   -3.4397    4.2795 N   0  0  0  0  0  0  0  0  0  0  0  0
   -3.7705    0.8262    4.3689 C   0  0  0  0  0  0  0  0  0  0  0  0
   -5.0207    1.4356    3.9720 C   0  0  0  0  0  0  0  0  0  0  0  0
   -5.9741    0.7792    3.3315 N   0  0  0  0  0  0  0  0  0  0  0  0
   -5.8055   -0.5205    3.0926 C   0  0  0  0  0  0  0  0  0  0  0  0
   -6.7346   -1.1771    2.2706 C   0  0  0  0  0  0  0  0  0  0  0  0
   -6.6339   -2.5447    2.0357 C   0  0  0  0  0  0  0  0  0  0  0  0
   -5.6636   -3.2943    2.6819 C   0  0  0  0  0  0  0  0  0  0  0  0
   -2.6765    1.7113    4.5535 C   0  0  0  0  0  0  0  0  0  0  0  0
   -2.9532    3.0486    4.8178 C   0  0  0  0  0  0  0  0  0  0  0  0
   -4.2343    3.5957    4.6768 C   0  0  0  0  0  0  0  0  0  0  0  0
   -5.2504    2.8151    4.1861 C   0  0  0  0  0  0  0  0  0  0  0  0
   -1.5637    0.2148    6.4946 O   0  0  0  0  0  0  0  0  0  0  0  0
   -1.4255    1.2898    4.4028 O   0  0  0  0  0  0  0  0  0  0  0  0
   -1.2576   -4.1998    8.2099 C   0  0  0  0  0  0  0  0  0  0  0  0
   -4.4893    5.0267    4.9877 C   0  0  0  0  0  0  0  0  0  0  0  0
   -7.6188   -3.1564    1.1017 C   0  0  0  0  0  0  0  0  0  0  0  0
   -0.6524    0.8944    5.5564 B   0  0  0  0  0  0  0  0  0  0  0  0
    8.8026    2.7133    8.5681 O   0  0  0  0  0  0  0  0  0  0  0  0
    8.2602    1.0724    9.9961 O   0  0  0  0  0  0  0  0  0  0  0  0
    9.5630    1.1461   10.5594 C   0  0  0  0  0  0  0  0  0  0  0  0
    0.9200   -4.8565    5.8177 O   0  0  0  0  0  0  0  0  0  0  0  0
    0.8300   -6.2751    5.7749 C   0  0  0  0  0  0  0  0  0  0  0  0
    1.7861   -4.9942    7.8760 O   0  0  0  0  0  0  0  0  0  0  0  0
   -0.7669   -3.7675    9.2212 O   0  0  0  0  0  0  0  0  0  0  0  0
   -1.4135   -5.5042    7.9618 O   0  0  0  0  0  0  0  0  0  0  0  0
   -0.9156   -6.3752    8.9737 C   0  0  0  0  0  0  0  0  0  0  0  0
   -8.4916   -2.5331    0.5476 O   0  0  0  0  0  0  0  0  0  0  0  0
   -7.4330   -4.4662    0.9383 O   0  0  0  0  0  0  0  0  0  0  0  0
   -8.3510   -5.1177    0.0690 C   0  0  0  0  0  0  0  0  0  0  0  0
   -5.5486    5.5814    4.8277 O   0  0  0  0  0  0  0  0  0  0  0  0
   -3.4122    5.6382    5.4917 O   0  0  0  0  0  0  0  0  0  0  0  0
   -3.5773    6.9970    5.8638 C   0  0  0  0  0  0  0  0  0  0  0  0
    1.7844    7.0396    3.8077 O   0  0  0  0  0  0  0  0  0  0  0  0
   -0.2827    6.1682    3.8355 O   0  0  0  0  0  0  0  0  0  0  0  0
   -0.8056    7.3868    3.3289 C   0  0  0  0  0  0  0  0  0  0  0  0
   -9.3733   -4.9712    0.4241 H   0  0  0  0  0  0  0  0  0  0  0  0
   -8.0866   -6.1717    0.0868 H   0  0  0  0  0  0  0  0  0  0  0  0
   -8.2698   -4.7143   -0.9423 H   0  0  0  0  0  0  0  0  0  0  0  0
   -2.6691    7.2795    6.3903 H   0  0  0  0  0  0  0  0  0  0  0  0
   -4.4481    7.1101    6.5134 H   0  0  0  0  0  0  0  0  0  0  0  0
   -3.7165    7.6206    4.9781 H   0  0  0  0  0  0  0  0  0  0  0  0
   -1.7374    7.1396    2.8258 H   0  0  0  0  0  0  0  0  0  0  0  0
   -0.0980    7.8441    2.6345 H   0  0  0  0  0  0  0  0  0  0  0  0
   -0.9879    8.0782    4.1552 H   0  0  0  0  0  0  0  0  0  0  0  0
   -1.4071   -6.1652    9.9251 H   0  0  0  0  0  0  0  0  0  0  0  0
    0.1600   -6.2256    9.0906 H   0  0  0  0  0  0  0  0  0  0  0  0
   -1.1366   -7.3863    8.6414 H   0  0  0  0  0  0  0  0  0  0  0  0
    1.4982   -6.7111    6.5212 H   0  0  0  0  0  0  0  0  0  0  0  0
    1.1211   -6.5896    4.7751 H   0  0  0  0  0  0  0  0  0  0  0  0
   -0.1957   -6.5793    5.9885 H   0  0  0  0  0  0  0  0  0  0  0  0
    9.5901    0.4089   11.3573 H   0  0  0  0  0  0  0  0  0  0  0  0
    9.7500    2.1468   10.9533 H   0  0  0  0  0  0  0  0  0  0  0  0
   10.3163    0.9213    9.8016 H   0  0  0  0  0  0  0  0  0  0  0  0
   -7.5377   -0.6082    1.8274 H   0  0  0  0  0  0  0  0  0  0  0  0
   -5.5974   -4.3604    2.5407 H   0  0  0  0  0  0  0  0  0  0  0  0
   -6.2184    3.2243    3.9452 H   0  0  0  0  0  0  0  0  0  0  0  0
   -2.7587   -4.8344    5.9344 H   0  0  0  0  0  0  0  0  0  0  0  0
   -2.1567    3.6955    5.1361 H   0  0  0  0  0  0  0  0  0  0  0  0
   -0.8993   -1.6007    8.0186 H   0  0  0  0  0  0  0  0  0  0  0  0
   -0.4780    3.9845    4.7292 H   0  0  0  0  0  0  0  0  0  0  0  0
    0.3536   -2.4247    5.1707 H   0  0  0  0  0  0  0  0  0  0  0  0
    2.9553   -2.9122    8.5316 H   0  0  0  0  0  0  0  0  0  0  0  0
    3.4903    5.5083    4.9522 H   0  0  0  0  0  0  0  0  0  0  0  0
    6.7019    3.6208    7.3902 H   0  0  0  0  0  0  0  0  0  0  0  0
    6.2267   -0.1452    9.3896 H   0  0  0  0  0  0  0  0  0  0  0  0
  1  2  2  0  0  0  0
  1 96  1  0  0  0  0
  2  3  1  0  0  0  0
  3  4  2  0  0  0  0
  3  7  1  0  0  0  0
  4  5  1  0  0  0  0
  5  6  2  0  0  0  0
  5 99  1  0  0  0  0
  6  1  1  0  0  0  0
  6 24  1  0  0  0  0
  7  8  1  0  0  0  0
  7 11  2  0  0  0  0
  8  9  1  0  0  0  0
  9 10  2  0  0  0  0
 10  4  1  0  0  0  0
 11 12  1  0  0  0  0
 11 18  1  0  0  0  0
 12 13  2  0  0  0  0
 13 14  1  0  0  0  0
 14  8  1  0  0  0  0
 14 15  2  0  0  0  0
 15 16  1  0  0  0  0
 15101  1  0  0  0  0
 16 17  2  0  0  0  0
 16 26  1  0  0  0  0
 17  9  1  0  0  0  0
 17100  1  0  0  0  0
 18 19  2  0  0  0  0
 19 20  1  0  0  0  0
 19 97  1  0  0  0  0
 20 21  2  0  0  0  0
 20 25  1  0  0  0  0
 21 12  1  0  0  0  0
 21 98  1  0  0  0  0
 22  2  1  0  0  0  0
 23 18  1  0  0  0  0
 24 69  2  0  0  0  0
 24 70  1  0  0  0  0
 25 57  1  0  0  0  0
 25 59  2  0  0  0  0
 26 54  2  0  0  0  0
 26 55  1  0  0  0  0
 27 28  2  0  0  0  0
 27 95  1  0  0  0  0
 28 29  1  0  0  0  0
 28 48  1  0  0  0  0
 29 30  2  0  0  0  0
 29 33  1  0  0  0  0
 30 31  1  0  0  0  0
 31 32  2  0  0  0  0
 31 93  1  0  0  0  0
 32 27  1  0  0  0  0
 32 50  1  0  0  0  0
 33 37  2  0  0  0  0
 34 33  1  0  0  0  0
 34 35  1  0  0  0  0
 35 36  2  0  0  0  0
 36 30  1  0  0  0  0
 37 38  1  0  0  0  0
 37 44  1  0  0  0  0
 38 39  2  0  0  0  0
 39 40  1  0  0  0  0
 40 34  1  0  0  0  0
 40 41  2  0  0  0  0
 41 42  1  0  0  0  0
 41 90  1  0  0  0  0
 42 43  2  0  0  0  0
 42 52  1  0  0  0  0
 43 35  1  0  0  0  0
 43 91  1  0  0  0  0
 44 45  2  0  0  0  0
 44 49  1  0  0  0  0
 45 46  1  0  0  0  0
 45 94  1  0  0  0  0
 46 47  2  0  0  0  0
 46 51  1  0  0  0  0
 47 38  1  0  0  0  0
 47 92  1  0  0  0  0
 50 60  2  0  0  0  0
 50 61  1  0  0  0  0
 51 66  2  0  0  0  0
 51 67  1  0  0  0  0
 52 63  2  0  0  0  0
 52 64  1  0  0  0  0
 53 49  1  0  0  0  0
 53 22  1  0  0  0  0
 53 48  1  0  0  0  0
 53 23  1  0  0  0  0
 55 56  1  0  0  0  0
 56 87  1  0  0  0  0
 56 88  1  0  0  0  0
 56 89  1  0  0  0  0
 57 58  1  0  0  0  0
 58 84  1  0  0  0  0
 58 85  1  0  0  0  0
 58 86  1  0  0  0  0
 61 62  1  0  0  0  0
 62 81  1  0  0  0  0
 62 82  1  0  0  0  0
 62 83  1  0  0  0  0
 64 65  1  0  0  0  0
 65 72  1  0  0  0  0
 65 73  1  0  0  0  0
 65 74  1  0  0  0  0
 67 68  1  0  0  0  0
 68 75  1  0  0  0  0
 68 76  1  0  0  0  0
 68 77  1  0  0  0  0
 70 71  1  0  0  0  0
 71 78  1  0  0  0  0
 71 79  1  0  0  0  0
 71 80  1  0  0  0  0
102103  2  0  0  0  0
102197  1  0  0  0  0
103104  1  0  0  0  0
104105  2  0  0  0  0
104108  1  0  0  0  0
105106  1  0  0  0  0
106107  2  0  0  0  0
106200  1  0  0  0  0
107102  1  0  0  0  0
107125  1  0  0  0  0
108109  1  0  0  0  0
108112  2  0  0  0  0
109110  1  0  0  0  0
110111  2  0  0  0  0
111105  1  0  0  0  0
112113  1  0  0  0  0
112119  1  0  0  0  0
113114  2  0  0  0  0
114115  1  0  0  0  0
115109  1  0  0  0  0
115116  2  0  0  0  0
116117  1  0  0  0  0
116202  1  0  0  0  0
117118  2  0  0  0  0
117127  1  0  0  0  0
118110  1  0  0  0  0
118201  1  0  0  0  0
119120  2  0  0  0  0
120121  1  0  0  0  0
120198  1  0  0  0  0
121122  2  0  0  0  0
121126  1  0  0  0  0
122113  1  0  0  0  0
122199  1  0  0  0  0
123103  1  0  0  0  0
124119  1  0  0  0  0
125170  2  0  0  0  0
125171  1  0  0  0  0
126158  1  0  0  0  0
126160  2  0  0  0  0
127155  2  0  0  0  0
127156  1  0  0  0  0
128129  2  0  0  0  0
128196  1  0  0  0  0
129130  1  0  0  0  0
129149  1  0  0  0  0
130131  2  0  0  0  0
130134  1  0  0  0  0
131132  1  0  0  0  0
132133  2  0  0  0  0
132194  1  0  0  0  0
133128  1  0  0  0  0
133151  1  0  0  0  0
134138  2  0  0  0  0
135134  1  0  0  0  0
135136  1  0  0  0  0
136137  2  0  0  0  0
137131  1  0  0  0  0
138139  1  0  0  0  0
138145  1  0  0  0  0
139140  2  0  0  0  0
140141  1  0  0  0  0
141135  1  0  0  0  0
141142  2  0  0  0  0
142143  1  0  0  0  0
142191  1  0  0  0  0
143144  2  0  0  0  0
143153  1  0  0  0  0
144136  1  0  0  0  0
144192  1  0  0  0  0
145146  2  0  0  0  0
145150  1  0  0  0  0
146147  1  0  0  0  0
146195  1  0  0  0  0
147148  2  0  0  0  0
147152  1  0  0  0  0
148139  1  0  0  0  0
148193  1  0  0  0  0
151161  2  0  0  0  0
151162  1  0  0  0  0
152167  2  0  0  0  0
152168  1  0  0  0  0
153164  2  0  0  0  0
153165  1  0  0  0  0
154150  1  0  0  0  0
154123  1  0  0  0  0
154149  1  0  0  0  0
154124  1  0  0  0  0
156157  1  0  0  0  0
157188  1  0  0  0  0
157189  1  0  0  0  0
157190  1  0  0  0  0
158159  1  0  0  0  0
159185  1  0  0  0  0
159186  1  0  0  0  0
159187  1  0  0  0  0
162163  1  0  0  0  0
163182  1  0  0  0  0
163183  1  0  0  0  0
163184  1  0  0  0  0
165166  1  0  0  0  0
166173  1  0  0  0  0
166174  1  0  0  0  0
166175  1  0  0  0  0
168169  1  0  0  0  0
169176  1  0  0  0  0
169177  1  0  0  0  0
169178  1  0  0  0  0
171172  1  0  0  0  0
172179  1  0  0  0  0
172180  1  0  0  0  0
172181  1  0  0  0  0
M  CHG  1   8   1
M  CHG  1  53  -1
M  CHG  1 109   1
M  CHG  1 154  -1
M  END
