 energy: -401.597974252515 gnorm: 0.000661792677 xtb: 6.6.1 (8d0f1dd)
          10312414013D

202224  0     0  0            999 V2000
   -0.5609    4.8331    1.0872 C   0  0  0  0  0  0  0  0  0  0  0  0
   -0.1651    3.6078    1.6063 C   0  0  0  0  0  0  0  0  0  0  0  0
    1.2109    3.2587    1.5996 C   0  0  0  0  0  0  0  0  0  0  0  0
    2.1314    4.3376    1.3897 C   0  0  0  0  0  0  0  0  0  0  0  0
    1.7115    5.5476    0.8307 C   0  0  0  0  0  0  0  0  0  0  0  0
    0.3639    5.7753    0.6345 C   0  0  0  0  0  0  0  0  0  0  0  0
    1.8002    1.9565    1.8235 C   0  0  0  0  0  0  0  0  0  0  0  0
    3.1226    1.9924    2.3125 C   0  0  0  0  0  0  0  0  0  0  0  0
    3.7979    3.2367    2.4659 C   0  0  0  0  0  0  0  0  0  0  0  0
    3.4022    4.3061    1.8634 N   0  0  0  0  0  0  0  0  0  0  0  0
    1.2982    0.6555    1.4541 C   0  0  0  0  0  0  0  0  0  0  0  0
    2.1713   -0.4662    1.6764 C   0  0  0  0  0  0  0  0  0  0  0  0
    3.4030   -0.3741    2.2171 N   0  0  0  0  0  0  0  0  0  0  0  0
    3.8843    0.8025    2.4962 C   0  0  0  0  0  0  0  0  0  0  0  0
    5.3029    0.9144    2.7775 C   0  0  0  0  0  0  0  0  0  0  0  0
    5.8621    2.0871    3.1153 C   0  0  0  0  0  0  0  0  0  0  0  0
    4.9640    3.2605    3.4206 C   0  0  0  0  0  0  0  0  0  0  0  0
    0.0968    0.3692    0.7328 C   0  0  0  0  0  0  0  0  0  0  0  0
   -0.1089   -0.8995    0.1977 C   0  0  0  0  0  0  0  0  0  0  0  0
    0.7599   -1.9653    0.4238 C   0  0  0  0  0  0  0  0  0  0  0  0
    1.8704   -1.7550    1.2074 C   0  0  0  0  0  0  0  0  0  0  0  0
   -1.0795    2.8286    2.1872 O   0  0  0  0  0  0  0  0  0  0  0  0
   -0.8453    1.2577    0.4255 O   0  0  0  0  0  0  0  0  0  0  0  0
   -0.0719    7.0467    0.0161 C   0  0  0  0  0  0  0  0  0  0  0  0
    0.4892   -3.3090   -0.1310 C   0  0  0  0  0  0  0  0  0  0  0  0
    7.3224    2.3123    3.1788 C   0  0  0  0  0  0  0  0  0  0  0  0
   -1.7988   -1.2381    2.5176 C   0  0  0  0  0  0  0  0  0  0  0  0
   -2.6712   -0.3024    1.9676 C   0  0  0  0  0  0  0  0  0  0  0  0
   -3.7236   -0.7072    1.0999 C   0  0  0  0  0  0  0  0  0  0  0  0
   -3.7663   -2.1136    0.7836 C   0  0  0  0  0  0  0  0  0  0  0  0
   -2.8242   -3.0228    1.3152 C   0  0  0  0  0  0  0  0  0  0  0  0
   -1.8555   -2.5959    2.1868 C   0  0  0  0  0  0  0  0  0  0  0  0
   -4.8006    0.1175    0.6086 C   0  0  0  0  0  0  0  0  0  0  0  0
   -5.8488   -0.5754   -0.0428 C   0  0  0  0  0  0  0  0  0  0  0  0
   -5.7033   -1.9418   -0.4204 C   0  0  0  0  0  0  0  0  0  0  0  0
   -4.6704   -2.6730   -0.0193 N   0  0  0  0  0  0  0  0  0  0  0  0
   -5.0266    1.5313    0.7958 C   0  0  0  0  0  0  0  0  0  0  0  0
   -6.4070    1.9632    0.7504 C   0  0  0  0  0  0  0  0  0  0  0  0
   -7.3840    1.2505    0.2053 N   0  0  0  0  0  0  0  0  0  0  0  0
   -7.0983    0.0581   -0.3118 C   0  0  0  0  0  0  0  0  0  0  0  0
   -8.0824   -0.6093   -1.0584 C   0  0  0  0  0  0  0  0  0  0  0  0
   -7.8626   -1.8988   -1.5297 C   0  0  0  0  0  0  0  0  0  0  0  0
   -6.6921   -2.5666   -1.2079 C   0  0  0  0  0  0  0  0  0  0  0  0
   -4.0651    2.5751    0.9149 C   0  0  0  0  0  0  0  0  0  0  0  0
   -4.4705    3.8422    1.3302 C   0  0  0  0  0  0  0  0  0  0  0  0
   -5.8158    4.1824    1.4970 C   0  0  0  0  0  0  0  0  0  0  0  0
   -6.7791    3.2571    1.1781 C   0  0  0  0  0  0  0  0  0  0  0  0
   -2.4706    0.9649    2.3174 O   0  0  0  0  0  0  0  0  0  0  0  0
   -2.8075    2.4408    0.5091 O   0  0  0  0  0  0  0  0  0  0  0  0
   -0.7717   -3.4858    2.6758 C   0  0  0  0  0  0  0  0  0  0  0  0
   -6.2344    5.5593    1.8621 C   0  0  0  0  0  0  0  0  0  0  0  0
   -8.9316   -2.5476   -2.3259 C   0  0  0  0  0  0  0  0  0  0  0  0
   -1.7797    1.8636    1.3842 B   0  0  0  0  0  0  0  0  0  0  0  0
    7.8294    3.4083    3.1499 O   0  0  0  0  0  0  0  0  0  0  0  0
    8.0198    1.1735    3.2385 O   0  0  0  0  0  0  0  0  0  0  0  0
    9.4295    1.3297    3.3462 C   0  0  0  0  0  0  0  0  0  0  0  0
   -0.6811   -3.3684   -0.7806 O   0  0  0  0  0  0  0  0  0  0  0  0
   -1.0523   -4.6395   -1.2860 C   0  0  0  0  0  0  0  0  0  0  0  0
    1.2233   -4.2645   -0.0201 O   0  0  0  0  0  0  0  0  0  0  0  0
    0.1754   -3.1074    3.3166 O   0  0  0  0  0  0  0  0  0  0  0  0
   -0.9295   -4.7558    2.2727 O   0  0  0  0  0  0  0  0  0  0  0  0
    0.1463   -5.6424    2.5602 C   0  0  0  0  0  0  0  0  0  0  0  0
   -9.8464   -1.9726   -2.8576 O   0  0  0  0  0  0  0  0  0  0  0  0
   -8.7754   -3.8848   -2.3950 O   0  0  0  0  0  0  0  0  0  0  0  0
   -9.7685   -4.5796   -3.1315 C   0  0  0  0  0  0  0  0  0  0  0  0
   -7.3756    5.9469    1.8574 O   0  0  0  0  0  0  0  0  0  0  0  0
   -5.1940    6.3575    2.1485 O   0  0  0  0  0  0  0  0  0  0  0  0
   -5.5343    7.6942    2.4781 C   0  0  0  0  0  0  0  0  0  0  0  0
    0.6298    7.7841   -0.6301 O   0  0  0  0  0  0  0  0  0  0  0  0
   -1.3747    7.3077    0.2487 O   0  0  0  0  0  0  0  0  0  0  0  0
   -1.8844    8.4914   -0.3398 C   0  0  0  0  0  0  0  0  0  0  0  0
   -9.7970   -4.2207   -4.1625 H   0  0  0  0  0  0  0  0  0  0  0  0
  -10.7511   -4.4257   -2.6805 H   0  0  0  0  0  0  0  0  0  0  0  0
   -9.4929   -5.6309   -3.0993 H   0  0  0  0  0  0  0  0  0  0  0  0
   -4.5935    8.2203    2.6275 H   0  0  0  0  0  0  0  0  0  0  0  0
   -6.1445    7.7063    3.3842 H   0  0  0  0  0  0  0  0  0  0  0  0
   -6.1051    8.1510    1.6659 H   0  0  0  0  0  0  0  0  0  0  0  0
   -2.9530    8.4951   -0.1386 H   0  0  0  0  0  0  0  0  0  0  0  0
   -1.6958    8.4923   -1.4155 H   0  0  0  0  0  0  0  0  0  0  0  0
   -1.4065    9.3707    0.0991 H   0  0  0  0  0  0  0  0  0  0  0  0
   -0.2792   -6.6414    2.6318 H   0  0  0  0  0  0  0  0  0  0  0  0
    0.6305   -5.3498    3.4922 H   0  0  0  0  0  0  0  0  0  0  0  0
    0.8763   -5.5932    1.7482 H   0  0  0  0  0  0  0  0  0  0  0  0
   -1.0829   -5.3713   -0.4758 H   0  0  0  0  0  0  0  0  0  0  0  0
   -0.3348   -4.9753   -2.0387 H   0  0  0  0  0  0  0  0  0  0  0  0
   -2.0392   -4.5113   -1.7234 H   0  0  0  0  0  0  0  0  0  0  0  0
    9.8501    0.3294    3.2835 H   0  0  0  0  0  0  0  0  0  0  0  0
    9.6759    1.7953    4.3032 H   0  0  0  0  0  0  0  0  0  0  0  0
    9.8042    1.9593    2.5367 H   0  0  0  0  0  0  0  0  0  0  0  0
   -9.0198   -0.1128   -1.2492 H   0  0  0  0  0  0  0  0  0  0  0  0
   -6.5147   -3.5806   -1.5284 H   0  0  0  0  0  0  0  0  0  0  0  0
   -7.8255    3.5144    1.1798 H   0  0  0  0  0  0  0  0  0  0  0  0
   -2.9159   -4.0550    1.0234 H   0  0  0  0  0  0  0  0  0  0  0  0
   -3.7052    4.5854    1.4822 H   0  0  0  0  0  0  0  0  0  0  0  0
   -1.0394   -0.8733    3.1953 H   0  0  0  0  0  0  0  0  0  0  0  0
   -1.6165    5.0423    1.0392 H   0  0  0  0  0  0  0  0  0  0  0  0
   -0.9923   -1.0399   -0.4055 H   0  0  0  0  0  0  0  0  0  0  0  0
    2.5624   -2.5513    1.4264 H   0  0  0  0  0  0  0  0  0  0  0  0
    2.4410    6.3144    0.6298 H   0  0  0  0  0  0  0  0  0  0  0  0
    5.5138    4.2057    3.3692 H   0  0  0  0  0  0  0  0  0  0  0  0
    5.8984    0.0315    2.6074 H   0  0  0  0  0  0  0  0  0  0  0  0
    0.4310    4.1272    5.5081 C   0  0  0  0  0  0  0  0  0  0  0  0
    0.8718    2.8851    5.9431 C   0  0  0  0  0  0  0  0  0  0  0  0
    2.1797    2.4453    5.6359 C   0  0  0  0  0  0  0  0  0  0  0  0
    3.0376    3.3676    4.9808 C   0  0  0  0  0  0  0  0  0  0  0  0
    2.5798    4.6141    4.5689 C   0  0  0  0  0  0  0  0  0  0  0  0
    1.2593    4.9739    4.7894 C   0  0  0  0  0  0  0  0  0  0  0  0
    2.7222    1.1684    6.0566 C   0  0  0  0  0  0  0  0  0  0  0  0
    4.1238    1.1928    6.2599 C   0  0  0  0  0  0  0  0  0  0  0  0
    4.9479    2.1782    5.6583 C   0  0  0  0  0  0  0  0  0  0  0  0
    4.3679    3.0440    4.7587 N   0  0  0  0  0  0  0  0  0  0  0  0
    2.0565   -0.0667    6.3174 C   0  0  0  0  0  0  0  0  0  0  0  0
    2.8222   -1.0606    7.0383 C   0  0  0  0  0  0  0  0  0  0  0  0
    4.0651   -0.8747    7.4725 N   0  0  0  0  0  0  0  0  0  0  0  0
    4.7477    0.1801    7.0481 C   0  0  0  0  0  0  0  0  0  0  0  0
    6.1219    0.2692    7.3454 C   0  0  0  0  0  0  0  0  0  0  0  0
    6.8790    1.2869    6.8084 C   0  0  0  0  0  0  0  0  0  0  0  0
    6.3004    2.2284    5.9441 C   0  0  0  0  0  0  0  0  0  0  0  0
    0.7705   -0.4854    5.8413 C   0  0  0  0  0  0  0  0  0  0  0  0
    0.3847   -1.8172    5.9745 C   0  0  0  0  0  0  0  0  0  0  0  0
    1.1311   -2.7493    6.7005 C   0  0  0  0  0  0  0  0  0  0  0  0
    2.3039   -2.3504    7.2899 C   0  0  0  0  0  0  0  0  0  0  0  0
    0.0515    2.1330    6.6782 O   0  0  0  0  0  0  0  0  0  0  0  0
   -0.0810    0.2987    5.1786 O   0  0  0  0  0  0  0  0  0  0  0  0
    0.7512    6.2525    4.2352 C   0  0  0  0  0  0  0  0  0  0  0  0
    0.6926   -4.1603    6.8336 C   0  0  0  0  0  0  0  0  0  0  0  0
    8.3296    1.3923    7.0823 C   0  0  0  0  0  0  0  0  0  0  0  0
   -1.7933   -1.3108    7.8315 C   0  0  0  0  0  0  0  0  0  0  0  0
   -2.2369   -0.4587    6.8275 C   0  0  0  0  0  0  0  0  0  0  0  0
   -3.1007   -0.9292    5.7996 C   0  0  0  0  0  0  0  0  0  0  0  0
   -3.3151   -2.3553    5.7793 C   0  0  0  0  0  0  0  0  0  0  0  0
   -2.7949   -3.2022    6.7867 C   0  0  0  0  0  0  0  0  0  0  0  0
   -2.0848   -2.6785    7.8371 C   0  0  0  0  0  0  0  0  0  0  0  0
   -3.8822   -0.1158    4.9010 C   0  0  0  0  0  0  0  0  0  0  0  0
   -4.8657   -0.8281    4.1692 C   0  0  0  0  0  0  0  0  0  0  0  0
   -4.8406   -2.2517    4.0881 C   0  0  0  0  0  0  0  0  0  0  0  0
   -4.0520   -2.9839    4.8651 N   0  0  0  0  0  0  0  0  0  0  0  0
   -3.9349    1.3251    4.7705 C   0  0  0  0  0  0  0  0  0  0  0  0
   -5.2178    1.8563    4.3513 C   0  0  0  0  0  0  0  0  0  0  0  0
   -6.1677    1.1408    3.7639 N   0  0  0  0  0  0  0  0  0  0  0  0
   -5.9590   -0.1555    3.5519 C   0  0  0  0  0  0  0  0  0  0  0  0
   -6.9057   -0.8734    2.8023 C   0  0  0  0  0  0  0  0  0  0  0  0
   -6.7692   -2.2452    2.6147 C   0  0  0  0  0  0  0  0  0  0  0  0
   -5.7427   -2.9305    3.2419 C   0  0  0  0  0  0  0  0  0  0  0  0
   -2.9031    2.3039    4.9142 C   0  0  0  0  0  0  0  0  0  0  0  0
   -3.2525    3.6568    4.9763 C   0  0  0  0  0  0  0  0  0  0  0  0
   -4.5679    4.1149    4.8829 C   0  0  0  0  0  0  0  0  0  0  0  0
   -5.5446    3.2224    4.5168 C   0  0  0  0  0  0  0  0  0  0  0  0
   -1.8245    0.8004    6.9055 O   0  0  0  0  0  0  0  0  0  0  0  0
   -1.6052    2.0661    4.9135 O   0  0  0  0  0  0  0  0  0  0  0  0
   -1.5257   -3.4924    8.9446 C   0  0  0  0  0  0  0  0  0  0  0  0
   -4.9321    5.5153    5.1954 C   0  0  0  0  0  0  0  0  0  0  0  0
   -7.7793   -2.9469    1.7832 C   0  0  0  0  0  0  0  0  0  0  0  0
   -0.8876    1.3135    5.9027 B   0  0  0  0  0  0  0  0  0  0  0  0
    9.0955    2.1138    6.4876 O   0  0  0  0  0  0  0  0  0  0  0  0
    8.7260    0.5845    8.0776 O   0  0  0  0  0  0  0  0  0  0  0  0
   10.1078    0.6209    8.3900 C   0  0  0  0  0  0  0  0  0  0  0  0
   -0.2435   -4.4926    5.9399 O   0  0  0  0  0  0  0  0  0  0  0  0
   -0.7033   -5.8347    5.9757 C   0  0  0  0  0  0  0  0  0  0  0  0
    1.1396   -4.9470    7.6365 O   0  0  0  0  0  0  0  0  0  0  0  0
   -0.8798   -3.0405    9.8564 O   0  0  0  0  0  0  0  0  0  0  0  0
   -1.8125   -4.7986    8.8293 O   0  0  0  0  0  0  0  0  0  0  0  0
   -1.1998   -5.6465    9.7931 C   0  0  0  0  0  0  0  0  0  0  0  0
   -8.7471   -2.4168    1.2932 O   0  0  0  0  0  0  0  0  0  0  0  0
   -7.5135   -4.2515    1.6468 O   0  0  0  0  0  0  0  0  0  0  0  0
   -8.4440   -4.9969    0.8767 C   0  0  0  0  0  0  0  0  0  0  0  0
   -6.0419    5.9809    5.0972 O   0  0  0  0  0  0  0  0  0  0  0  0
   -3.8966    6.2190    5.6818 O   0  0  0  0  0  0  0  0  0  0  0  0
   -4.1922    7.5245    6.1482 C   0  0  0  0  0  0  0  0  0  0  0  0
    1.4374    7.1415    3.7931 O   0  0  0  0  0  0  0  0  0  0  0  0
   -0.5854    6.2985    4.2707 O   0  0  0  0  0  0  0  0  0  0  0  0
   -1.2095    7.4393    3.7057 C   0  0  0  0  0  0  0  0  0  0  0  0
   -8.4145   -4.6795   -0.1672 H   0  0  0  0  0  0  0  0  0  0  0  0
   -9.4560   -4.8496    1.2613 H   0  0  0  0  0  0  0  0  0  0  0  0
   -8.1460   -6.0385    0.9691 H   0  0  0  0  0  0  0  0  0  0  0  0
   -3.3009    7.8718    6.6656 H   0  0  0  0  0  0  0  0  0  0  0  0
   -5.0454    7.4980    6.8299 H   0  0  0  0  0  0  0  0  0  0  0  0
   -4.4343    8.1902    5.3161 H   0  0  0  0  0  0  0  0  0  0  0  0
   -2.2149    7.4635    4.1176 H   0  0  0  0  0  0  0  0  0  0  0  0
   -1.2509    7.3412    2.6197 H   0  0  0  0  0  0  0  0  0  0  0  0
   -0.6539    8.3436    3.9662 H   0  0  0  0  0  0  0  0  0  0  0  0
   -1.6948   -6.6117    9.7126 H   0  0  0  0  0  0  0  0  0  0  0  0
   -1.3214   -5.2300   10.7946 H   0  0  0  0  0  0  0  0  0  0  0  0
   -0.1340   -5.7366    9.5689 H   0  0  0  0  0  0  0  0  0  0  0  0
   -1.1955   -6.0383    6.9280 H   0  0  0  0  0  0  0  0  0  0  0  0
    0.1337   -6.5274    5.8553 H   0  0  0  0  0  0  0  0  0  0  0  0
   -1.4090   -5.9324    5.1546 H   0  0  0  0  0  0  0  0  0  0  0  0
   10.2401   -0.0181    9.2596 H   0  0  0  0  0  0  0  0  0  0  0  0
   10.4216    1.6435    8.6122 H   0  0  0  0  0  0  0  0  0  0  0  0
   10.6984    0.2494    7.5490 H   0  0  0  0  0  0  0  0  0  0  0  0
   -7.7483   -0.3461    2.3833 H   0  0  0  0  0  0  0  0  0  0  0  0
   -5.6473   -3.9995    3.1508 H   0  0  0  0  0  0  0  0  0  0  0  0
   -6.5580    3.5331    4.3212 H   0  0  0  0  0  0  0  0  0  0  0  0
   -3.0299   -4.2503    6.7157 H   0  0  0  0  0  0  0  0  0  0  0  0
   -2.4542    4.3681    5.1026 H   0  0  0  0  0  0  0  0  0  0  0  0
   -1.1815   -0.8932    8.6163 H   0  0  0  0  0  0  0  0  0  0  0  0
   -0.5747    4.4150    5.7534 H   0  0  0  0  0  0  0  0  0  0  0  0
   -0.5191   -2.1287    5.4801 H   0  0  0  0  0  0  0  0  0  0  0  0
    2.9012   -3.0345    7.8707 H   0  0  0  0  0  0  0  0  0  0  0  0
    3.2401    5.3108    4.0786 H   0  0  0  0  0  0  0  0  0  0  0  0
    6.9215    3.0071    5.5331 H   0  0  0  0  0  0  0  0  0  0  0  0
    6.5614   -0.4956    7.9626 H   0  0  0  0  0  0  0  0  0  0  0  0
  1  2  2  0  0  0  0
  1 96  1  0  0  0  0
  2  3  1  0  0  0  0
  3  4  2  0  0  0  0
  3  7  1  0  0  0  0
  4  5  1  0  0  0  0
  5  6  2  0  0  0  0
  5 99  1  0  0  0  0
  6  1  1  0  0  0  0
  6 24  1  0  0  0  0
  7  8  1  0  0  0  0
  7 11  2  0  0  0  0
  8  9  1  0  0  0  0
  9 10  2  0  0  0  0
 10  4  1  0  0  0  0
 11 12  1  0  0  0  0
 11 18  1  0  0  0  0
 12 13  2  0  0  0  0
 13 14  1  0  0  0  0
 14  8  1  0  0  0  0
 14 15  2  0  0  0  0
 15 16  1  0  0  0  0
 15101  1  0  0  0  0
 16 17  2  0  0  0  0
 16 26  1  0  0  0  0
 17  9  1  0  0  0  0
 17100  1  0  0  0  0
 18 19  2  0  0  0  0
 19 20  1  0  0  0  0
 19 97  1  0  0  0  0
 20 21  2  0  0  0  0
 20 25  1  0  0  0  0
 21 12  1  0  0  0  0
 21 98  1  0  0  0  0
 22  2  1  0  0  0  0
 23 18  1  0  0  0  0
 24 69  2  0  0  0  0
 24 70  1  0  0  0  0
 25 57  1  0  0  0  0
 25 59  2  0  0  0  0
 26 54  2  0  0  0  0
 26 55  1  0  0  0  0
 27 28  2  0  0  0  0
 27 95  1  0  0  0  0
 28 29  1  0  0  0  0
 28 48  1  0  0  0  0
 29 30  2  0  0  0  0
 29 33  1  0  0  0  0
 30 31  1  0  0  0  0
 31 32  2  0  0  0  0
 31 93  1  0  0  0  0
 32 27  1  0  0  0  0
 32 50  1  0  0  0  0
 33 37  2  0  0  0  0
 34 33  1  0  0  0  0
 34 35  1  0  0  0  0
 35 36  2  0  0  0  0
 36 30  1  0  0  0  0
 37 38  1  0  0  0  0
 37 44  1  0  0  0  0
 38 39  2  0  0  0  0
 39 40  1  0  0  0  0
 40 34  1  0  0  0  0
 40 41  2  0  0  0  0
 41 42  1  0  0  0  0
 41 90  1  0  0  0  0
 42 43  2  0  0  0  0
 42 52  1  0  0  0  0
 43 35  1  0  0  0  0
 43 91  1  0  0  0  0
 44 45  2  0  0  0  0
 44 49  1  0  0  0  0
 45 46  1  0  0  0  0
 45 94  1  0  0  0  0
 46 47  2  0  0  0  0
 46 51  1  0  0  0  0
 47 38  1  0  0  0  0
 47 92  1  0  0  0  0
 50 60  2  0  0  0  0
 50 61  1  0  0  0  0
 51 66  2  0  0  0  0
 51 67  1  0  0  0  0
 52 63  2  0  0  0  0
 52 64  1  0  0  0  0
 53 49  1  0  0  0  0
 53 22  1  0  0  0  0
 53 48  1  0  0  0  0
 53 23  1  0  0  0  0
 55 56  1  0  0  0  0
 56 87  1  0  0  0  0
 56 88  1  0  0  0  0
 56 89  1  0  0  0  0
 57 58  1  0  0  0  0
 58 84  1  0  0  0  0
 58 85  1  0  0  0  0
 58 86  1  0  0  0  0
 61 62  1  0  0  0  0
 62 81  1  0  0  0  0
 62 82  1  0  0  0  0
 62 83  1  0  0  0  0
 64 65  1  0  0  0  0
 65 72  1  0  0  0  0
 65 73  1  0  0  0  0
 65 74  1  0  0  0  0
 67 68  1  0  0  0  0
 68 75  1  0  0  0  0
 68 76  1  0  0  0  0
 68 77  1  0  0  0  0
 70 71  1  0  0  0  0
 71 78  1  0  0  0  0
 71 79  1  0  0  0  0
 71 80  1  0  0  0  0
102103  2  0  0  0  0
102197  1  0  0  0  0
103104  1  0  0  0  0
104105  2  0  0  0  0
104108  1  0  0  0  0
105106  1  0  0  0  0
106107  2  0  0  0  0
106200  1  0  0  0  0
107102  1  0  0  0  0
107125  1  0  0  0  0
108109  1  0  0  0  0
108112  2  0  0  0  0
109110  1  0  0  0  0
110111  2  0  0  0  0
111105  1  0  0  0  0
112113  1  0  0  0  0
112119  1  0  0  0  0
113114  2  0  0  0  0
114115  1  0  0  0  0
115109  1  0  0  0  0
115116  2  0  0  0  0
116117  1  0  0  0  0
116202  1  0  0  0  0
117118  2  0  0  0  0
117127  1  0  0  0  0
118110  1  0  0  0  0
118201  1  0  0  0  0
119120  2  0  0  0  0
120121  1  0  0  0  0
120198  1  0  0  0  0
121122  2  0  0  0  0
121126  1  0  0  0  0
122113  1  0  0  0  0
122199  1  0  0  0  0
123103  1  0  0  0  0
124119  1  0  0  0  0
125170  2  0  0  0  0
125171  1  0  0  0  0
126158  1  0  0  0  0
126160  2  0  0  0  0
127155  2  0  0  0  0
127156  1  0  0  0  0
128129  2  0  0  0  0
128196  1  0  0  0  0
129130  1  0  0  0  0
129149  1  0  0  0  0
130131  2  0  0  0  0
130134  1  0  0  0  0
131132  1  0  0  0  0
132133  2  0  0  0  0
132194  1  0  0  0  0
133128  1  0  0  0  0
133151  1  0  0  0  0
134138  2  0  0  0  0
135134  1  0  0  0  0
135136  1  0  0  0  0
136137  2  0  0  0  0
137131  1  0  0  0  0
138139  1  0  0  0  0
138145  1  0  0  0  0
139140  2  0  0  0  0
140141  1  0  0  0  0
141135  1  0  0  0  0
141142  2  0  0  0  0
142143  1  0  0  0  0
142191  1  0  0  0  0
143144  2  0  0  0  0
143153  1  0  0  0  0
144136  1  0  0  0  0
144192  1  0  0  0  0
145146  2  0  0  0  0
145150  1  0  0  0  0
146147  1  0  0  0  0
146195  1  0  0  0  0
147148  2  0  0  0  0
147152  1  0  0  0  0
148139  1  0  0  0  0
148193  1  0  0  0  0
151161  2  0  0  0  0
151162  1  0  0  0  0
152167  2  0  0  0  0
152168  1  0  0  0  0
153164  2  0  0  0  0
153165  1  0  0  0  0
154150  1  0  0  0  0
154123  1  0  0  0  0
154149  1  0  0  0  0
154124  1  0  0  0  0
156157  1  0  0  0  0
157188  1  0  0  0  0
157189  1  0  0  0  0
157190  1  0  0  0  0
158159  1  0  0  0  0
159185  1  0  0  0  0
159186  1  0  0  0  0
159187  1  0  0  0  0
162163  1  0  0  0  0
163182  1  0  0  0  0
163183  1  0  0  0  0
163184  1  0  0  0  0
165166  1  0  0  0  0
166173  1  0  0  0  0
166174  1  0  0  0  0
166175  1  0  0  0  0
168169  1  0  0  0  0
169176  1  0  0  0  0
169177  1  0  0  0  0
169178  1  0  0  0  0
171172  1  0  0  0  0
172179  1  0  0  0  0
172180  1  0  0  0  0
172181  1  0  0  0  0
M  CHG  1   1  -1
M  END
