 xtb: 6.7.1 (edcfbbe)
          12102412573D

101112  0     0  0            999 V2000
   -0.1843    4.5027    0.2084 C   0  0  0  0  0  0  0  0  0  0  0  0
    0.2317    3.3082    0.7837 C   0  0  0  0  0  0  0  0  0  0  0  0
    1.6092    2.9807    0.8075 C   0  0  0  0  0  0  0  0  0  0  0  0
    2.5278    4.0404    0.4572 C   0  0  0  0  0  0  0  0  0  0  0  0
    2.0647    5.2164   -0.1792 C   0  0  0  0  0  0  0  0  0  0  0  0
    0.7166    5.4333   -0.3196 C   0  0  0  0  0  0  0  0  0  0  0  0
    2.1805    1.7367    1.2523 C   0  0  0  0  0  0  0  0  0  0  0  0
    3.5164    1.8316    1.7070 C   0  0  0  0  0  0  0  0  0  0  0  0
    4.2870    3.0123    1.4894 C   0  0  0  0  0  0  0  0  0  0  0  0
    3.8145    4.0309    0.7766 N   0  0  0  0  0  0  0  0  0  0  0  0
    1.6199    0.4086    1.2077 C   0  0  0  0  0  0  0  0  0  0  0  0
    2.3864   -0.6348    1.8538 C   0  0  0  0  0  0  0  0  0  0  0  0
    3.5340   -0.4376    2.4901 N   0  0  0  0  0  0  0  0  0  0  0  0
    4.1375    0.7402    2.3776 C   0  0  0  0  0  0  0  0  0  0  0  0
    5.4355    0.8773    2.9098 C   0  0  0  0  0  0  0  0  0  0  0  0
    6.1583    2.0432    2.7054 C   0  0  0  0  0  0  0  0  0  0  0  0
    5.6030    3.0910    1.9816 C   0  0  0  0  0  0  0  0  0  0  0  0
    0.4932   -0.0254    0.4501 C   0  0  0  0  0  0  0  0  0  0  0  0
    0.2767   -1.3934    0.2547 C   0  0  0  0  0  0  0  0  0  0  0  0
    1.0280   -2.3826    0.8970 C   0  0  0  0  0  0  0  0  0  0  0  0
    2.0217   -1.9999    1.7591 C   0  0  0  0  0  0  0  0  0  0  0  0
   -0.6744    2.5273    1.3743 O   0  0  0  0  0  0  0  0  0  0  0  0
   -0.3568    0.7717   -0.1910 O   0  0  0  0  0  0  0  0  0  0  0  0
    0.2376    6.6808   -0.9758 C   0  0  0  0  0  0  0  0  0  0  0  0
    0.7764   -3.8288    0.6623 C   0  0  0  0  0  0  0  0  0  0  0  0
    7.5509    2.2032    3.2179 C   0  0  0  0  0  0  0  0  0  0  0  0
   -1.8613   -1.3811    2.0597 C   0  0  0  0  0  0  0  0  0  0  0  0
   -2.4951   -0.4623    1.2257 C   0  0  0  0  0  0  0  0  0  0  0  0
   -3.3902   -0.9088    0.2144 C   0  0  0  0  0  0  0  0  0  0  0  0
   -3.4822   -2.3409    0.0458 C   0  0  0  0  0  0  0  0  0  0  0  0
   -2.7793   -3.2393    0.8850 C   0  0  0  0  0  0  0  0  0  0  0  0
   -2.0099   -2.7647    1.9136 C   0  0  0  0  0  0  0  0  0  0  0  0
   -4.3051   -0.0949   -0.5455 C   0  0  0  0  0  0  0  0  0  0  0  0
   -5.2662   -0.8060   -1.3024 C   0  0  0  0  0  0  0  0  0  0  0  0
   -5.1378   -2.2079   -1.5242 C   0  0  0  0  0  0  0  0  0  0  0  0
   -4.2463   -2.9364   -0.8638 N   0  0  0  0  0  0  0  0  0  0  0  0
   -4.4771    1.3403   -0.5343 C   0  0  0  0  0  0  0  0  0  0  0  0
   -5.8133    1.8122   -0.8382 C   0  0  0  0  0  0  0  0  0  0  0  0
   -6.7252    1.0858   -1.4681 N   0  0  0  0  0  0  0  0  0  0  0  0
   -6.4194   -0.1558   -1.8309 C   0  0  0  0  0  0  0  0  0  0  0  0
   -7.2995   -0.8536   -2.6768 C   0  0  0  0  0  0  0  0  0  0  0  0
   -7.0649   -2.1846   -3.0016 C   0  0  0  0  0  0  0  0  0  0  0  0
   -6.0061   -2.8653   -2.4208 C   0  0  0  0  0  0  0  0  0  0  0  0
   -3.4977    2.3580   -0.3615 C   0  0  0  0  0  0  0  0  0  0  0  0
   -3.9097    3.6743   -0.1585 C   0  0  0  0  0  0  0  0  0  0  0  0
   -5.2502    4.0678   -0.2024 C   0  0  0  0  0  0  0  0  0  0  0  0
   -6.1974    3.1479   -0.5742 C   0  0  0  0  0  0  0  0  0  0  0  0
   -2.2264    0.8177    1.4608 O   0  0  0  0  0  0  0  0  0  0  0  0
   -2.1902    2.1507   -0.5099 O   0  0  0  0  0  0  0  0  0  0  0  0
   -1.2470   -3.6445    2.8413 C   0  0  0  0  0  0  0  0  0  0  0  0
   -5.6610    5.4721    0.0685 C   0  0  0  0  0  0  0  0  0  0  0  0
   -8.0048   -2.8534   -3.9471 C   0  0  0  0  0  0  0  0  0  0  0  0
   -1.3735    1.5663    0.5371 B   0  0  0  0  0  0  0  0  0  0  0  0
    8.2216    3.1883    3.0446 O   0  0  0  0  0  0  0  0  0  0  0  0
    7.9707    1.1265    3.8876 O   0  0  0  0  0  0  0  0  0  0  0  0
    9.2930    1.1927    4.4038 C   0  0  0  0  0  0  0  0  0  0  0  0
   -0.1246   -4.0369   -0.3017 O   0  0  0  0  0  0  0  0  0  0  0  0
   -0.4271   -5.3948   -0.5927 C   0  0  0  0  0  0  0  0  0  0  0  0
    1.3328   -4.7200    1.2555 O   0  0  0  0  0  0  0  0  0  0  0  0
   -0.5083   -3.2288    3.6979 O   0  0  0  0  0  0  0  0  0  0  0  0
   -1.4625   -4.9422    2.6100 O   0  0  0  0  0  0  0  0  0  0  0  0
   -0.7043   -5.8478    3.4062 C   0  0  0  0  0  0  0  0  0  0  0  0
   -8.9691   -2.3168   -4.4294 O   0  0  0  0  0  0  0  0  0  0  0  0
   -7.6523   -4.1168   -4.2048 O   0  0  0  0  0  0  0  0  0  0  0  0
   -8.4958   -4.8235   -5.1040 C   0  0  0  0  0  0  0  0  0  0  0  0
   -6.8014    5.8606    0.0464 O   0  0  0  0  0  0  0  0  0  0  0  0
   -4.6178    6.2648    0.3431 O   0  0  0  0  0  0  0  0  0  0  0  0
   -4.9276    7.6189    0.6365 C   0  0  0  0  0  0  0  0  0  0  0  0
    0.9606    7.5339   -1.4243 O   0  0  0  0  0  0  0  0  0  0  0  0
   -1.0985    6.7473   -1.0168 O   0  0  0  0  0  0  0  0  0  0  0  0
   -1.6502    7.8967   -1.6403 C   0  0  0  0  0  0  0  0  0  0  0  0
   -8.5155   -4.3254   -6.0754 H   0  0  0  0  0  0  0  0  0  0  0  0
   -9.5141   -4.8676   -4.7127 H   0  0  0  0  0  0  0  0  0  0  0  0
   -8.0756   -5.8216   -5.1937 H   0  0  0  0  0  0  0  0  0  0  0  0
   -3.9844    8.0998    0.8824 H   0  0  0  0  0  0  0  0  0  0  0  0
   -5.6193    7.6753    1.4794 H   0  0  0  0  0  0  0  0  0  0  0  0
   -5.3927    8.0988   -0.2275 H   0  0  0  0  0  0  0  0  0  0  0  0
   -2.7183    7.7131   -1.7216 H   0  0  0  0  0  0  0  0  0  0  0  0
   -1.2065    8.0435   -2.6270 H   0  0  0  0  0  0  0  0  0  0  0  0
   -1.4571    8.7854   -1.0353 H   0  0  0  0  0  0  0  0  0  0  0  0
   -1.1522   -6.8282    3.2642 H   0  0  0  0  0  0  0  0  0  0  0  0
   -0.7423   -5.5507    4.4553 H   0  0  0  0  0  0  0  0  0  0  0  0
    0.3349   -5.8426    3.0691 H   0  0  0  0  0  0  0  0  0  0  0  0
   -0.8532   -5.8805    0.2871 H   0  0  0  0  0  0  0  0  0  0  0  0
    0.4781   -5.9291   -0.8887 H   0  0  0  0  0  0  0  0  0  0  0  0
   -1.1464   -5.3742   -1.4070 H   0  0  0  0  0  0  0  0  0  0  0  0
    9.4737    0.2416    4.8975 H   0  0  0  0  0  0  0  0  0  0  0  0
    9.3821    2.0178    5.1131 H   0  0  0  0  0  0  0  0  0  0  0  0
   10.0081    1.3484    3.5936 H   0  0  0  0  0  0  0  0  0  0  0  0
   -8.1618   -0.3414   -3.0744 H   0  0  0  0  0  0  0  0  0  0  0  0
   -5.8394   -3.9118   -2.6170 H   0  0  0  0  0  0  0  0  0  0  0  0
   -7.2252    3.4291   -0.7364 H   0  0  0  0  0  0  0  0  0  0  0  0
   -2.9178   -4.2920    0.7066 H   0  0  0  0  0  0  0  0  0  0  0  0
   -3.1534    4.4194    0.0210 H   0  0  0  0  0  0  0  0  0  0  0  0
   -1.2330   -0.9985    2.8501 H   0  0  0  0  0  0  0  0  0  0  0  0
   -1.2397    4.7073    0.1801 H   0  0  0  0  0  0  0  0  0  0  0  0
   -0.5028   -1.6739   -0.4362 H   0  0  0  0  0  0  0  0  0  0  0  0
    2.6128   -2.7243    2.2952 H   0  0  0  0  0  0  0  0  0  0  0  0
    2.7875    5.9533   -0.4905 H   0  0  0  0  0  0  0  0  0  0  0  0
    6.1788    3.9837    1.7913 H   0  0  0  0  0  0  0  0  0  0  0  0
    5.8550    0.0448    3.4507 H   0  0  0  0  0  0  0  0  0  0  0  0
  1  2  4  0  0  0  0
  2  3  4  0  0  0  0
  3  4  1  0  0  0  0
  4  5  4  0  0  0  0
  1  6  4  0  0  0  0
  5  6  4  0  0  0  0
  3  7  4  0  0  0  0
  7  8  4  0  0  0  0
  8  9  1  0  0  0  0
  4 10  4  0  0  0  0
  9 10  4  0  0  0  0
  7 11  4  0  0  0  0
 11 12  1  0  0  0  0
 12 13  4  0  0  0  0
  8 14  1  0  0  0  0
 13 14  4  0  0  0  0
 14 15  4  0  0  0  0
 15 16  4  0  0  0  0
  9 17  4  0  0  0  0
 16 17  4  0  0  0  0
 11 18  4  0  0  0  0
 18 19  4  0  0  0  0
 19 20  4  0  0  0  0
 12 21  4  0  0  0  0
 20 21  4  0  0  0  0
  2 22  1  0  0  0  0
 18 23  1  0  0  0  0
  6 24  1  0  0  0  0
 20 25  1  0  0  0  0
 16 26  1  0  0  0  0
 27 28  4  0  0  0  0
 28 29  4  0  0  0  0
 29 30  1  0  0  0  0
 30 31  4  0  0  0  0
 27 32  4  0  0  0  0
 31 32  4  0  0  0  0
 29 33  4  0  0  0  0
 33 34  4  0  0  0  0
 34 35  1  0  0  0  0
 30 36  4  0  0  0  0
 35 36  4  0  0  0  0
 33 37  4  0  0  0  0
 37 38  1  0  0  0  0
 38 39  4  0  0  0  0
 34 40  1  0  0  0  0
 39 40  4  0  0  0  0
 40 41  4  0  0  0  0
 41 42  4  0  0  0  0
 35 43  4  0  0  0  0
 42 43  4  0  0  0  0
 37 44  4  0  0  0  0
 44 45  4  0  0  0  0
 45 46  4  0  0  0  0
 38 47  4  0  0  0  0
 46 47  4  0  0  0  0
 28 48  1  0  0  0  0
 44 49  1  0  0  0  0
 32 50  1  0  0  0  0
 46 51  1  0  0  0  0
 42 52  1  0  0  0  0
 22 53  1  0  0  0  0
 23 53  1  0  0  0  0
 48 53  1  0  0  0  0
 49 53  1  0  0  0  0
 26 54  2  0  0  0  0
 26 55  1  0  0  0  0
 55 56  1  0  0  0  0
 25 57  1  0  0  0  0
 57 58  1  0  0  0  0
 25 59  2  0  0  0  0
 50 60  2  0  0  0  0
 50 61  1  0  0  0  0
 61 62  1  0  0  0  0
 52 63  2  0  0  0  0
 52 64  1  0  0  0  0
 64 65  1  0  0  0  0
 51 66  2  0  0  0  0
 51 67  1  0  0  0  0
 67 68  1  0  0  0  0
 24 69  2  0  0  0  0
 24 70  1  0  0  0  0
 70 71  1  0  0  0  0
 65 72  1  0  0  0  0
 65 73  1  0  0  0  0
 65 74  1  0  0  0  0
 68 75  1  0  0  0  0
 68 76  1  0  0  0  0
 68 77  1  0  0  0  0
 71 78  1  0  0  0  0
 71 79  1  0  0  0  0
 71 80  1  0  0  0  0
 62 81  1  0  0  0  0
 62 82  1  0  0  0  0
 62 83  1  0  0  0  0
 58 84  1  0  0  0  0
 58 85  1  0  0  0  0
 58 86  1  0  0  0  0
 56 87  1  0  0  0  0
 56 88  1  0  0  0  0
 56 89  1  0  0  0  0
 41 90  1  0  0  0  0
 43 91  1  0  0  0  0
 47 92  1  0  0  0  0
 31 93  1  0  0  0  0
 45 94  1  0  0  0  0
 27 95  1  0  0  0  0
  1 96  1  0  0  0  0
 19 97  1  0  0  0  0
 21 98  1  0  0  0  0
  5 99  1  0  0  0  0
 17100  1  0  0  0  0
 15101  1  0  0  0  0
M  CHG  1   8   1
M  CHG  1  53  -1
M  END
