xtb: 6.7.1 (edcfbbe)_xtb: 6.7.1 (edcfbbe)
 OpenBabel12102413013D

202224  0  0  0  0  0  0  0  0999 V2000
   -0.1843    4.5027    0.2084 C   0  0  0  0  0  0  0  0  0  0  0  0
    0.2317    3.3082    0.7837 C   0  0  0  0  0  0  0  0  0  0  0  0
    1.6092    2.9807    0.8075 C   0  0  1  0  0  0  0  0  0  0  0  0
    2.5278    4.0404    0.4572 C   0  0  0  0  0  0  0  0  0  0  0  0
    2.0647    5.2164   -0.1792 C   0  0  0  0  0  0  0  0  0  0  0  0
    0.7166    5.4333   -0.3196 C   0  0  0  0  0  0  0  0  0  0  0  0
    2.1805    1.7367    1.2523 C   0  0  0  0  0  0  0  0  0  0  0  0
    3.5164    1.8316    1.7070 C   0  3  0  0  0  0  0  0  0  0  0  0
    4.2870    3.0123    1.4894 C   0  0  0  0  0  0  0  0  0  0  0  0
    3.8145    4.0309    0.7766 N   0  0  0  0  0  0  0  0  0  0  0  0
    1.6199    0.4086    1.2077 C   0  0  0  0  0  0  0  0  0  0  0  0
    2.3864   -0.6348    1.8538 C   0  0  0  0  0  0  0  0  0  0  0  0
    3.5340   -0.4376    2.4901 N   0  0  0  0  0  0  0  0  0  0  0  0
    4.1375    0.7402    2.3776 C   0  0  0  0  0  0  0  0  0  0  0  0
    5.4355    0.8773    2.9098 C   0  0  0  0  0  0  0  0  0  0  0  0
    6.1583    2.0432    2.7054 C   0  0  0  0  0  0  0  0  0  0  0  0
    5.6030    3.0910    1.9816 C   0  0  0  0  0  0  0  0  0  0  0  0
    0.4932   -0.0254    0.4501 C   0  0  0  0  0  0  0  0  0  0  0  0
    0.2767   -1.3934    0.2547 C   0  0  0  0  0  0  0  0  0  0  0  0
    1.0280   -2.3826    0.8970 C   0  0  0  0  0  0  0  0  0  0  0  0
    2.0217   -1.9999    1.7591 C   0  0  0  0  0  0  0  0  0  0  0  0
   -0.6744    2.5273    1.3743 O   0  0  0  0  0  0  0  0  0  0  0  0
   -0.3568    0.7717   -0.1910 O   0  0  0  0  0  0  0  0  0  0  0  0
    0.2376    6.6808   -0.9758 C   0  0  0  0  0  0  0  0  0  0  0  0
    0.7764   -3.8288    0.6623 C   0  0  0  0  0  0  0  0  0  0  0  0
    7.5509    2.2032    3.2179 C   0  0  0  0  0  0  0  0  0  0  0  0
   -1.8613   -1.3811    2.0597 C   0  0  0  0  0  0  0  0  0  0  0  0
   -2.4951   -0.4623    1.2257 C   0  0  0  0  0  0  0  0  0  0  0  0
   -3.3902   -0.9088    0.2144 C   0  0  1  0  0  0  0  0  0  0  0  0
   -3.4822   -2.3409    0.0458 C   0  0  0  0  0  0  0  0  0  0  0  0
   -2.7793   -3.2393    0.8850 C   0  0  0  0  0  0  0  0  0  0  0  0
   -2.0099   -2.7647    1.9136 C   0  0  0  0  0  0  0  0  0  0  0  0
   -4.3051   -0.0949   -0.5455 C   0  0  0  0  0  0  0  0  0  0  0  0
   -5.2662   -0.8060   -1.3024 C   0  0  0  0  0  0  0  0  0  0  0  0
   -5.1378   -2.2079   -1.5242 C   0  0  0  0  0  0  0  0  0  0  0  0
   -4.2463   -2.9364   -0.8638 N   0  0  0  0  0  0  0  0  0  0  0  0
   -4.4771    1.3403   -0.5343 C   0  0  0  0  0  0  0  0  0  0  0  0
   -5.8133    1.8122   -0.8382 C   0  0  0  0  0  0  0  0  0  0  0  0
   -6.7252    1.0858   -1.4681 N   0  0  0  0  0  0  0  0  0  0  0  0
   -6.4194   -0.1558   -1.8309 C   0  0  0  0  0  0  0  0  0  0  0  0
   -7.2995   -0.8536   -2.6768 C   0  0  0  0  0  0  0  0  0  0  0  0
   -7.0649   -2.1846   -3.0016 C   0  0  0  0  0  0  0  0  0  0  0  0
   -6.0061   -2.8653   -2.4208 C   0  0  0  0  0  0  0  0  0  0  0  0
   -3.4977    2.3580   -0.3615 C   0  0  0  0  0  0  0  0  0  0  0  0
   -3.9097    3.6743   -0.1585 C   0  0  0  0  0  0  0  0  0  0  0  0
   -5.2502    4.0678   -0.2024 C   0  0  0  0  0  0  0  0  0  0  0  0
   -6.1974    3.1479   -0.5742 C   0  0  0  0  0  0  0  0  0  0  0  0
   -2.2264    0.8177    1.4608 O   0  0  0  0  0  0  0  0  0  0  0  0
   -2.1902    2.1507   -0.5099 O   0  0  0  0  0  0  0  0  0  0  0  0
   -1.2470   -3.6445    2.8413 C   0  0  0  0  0  0  0  0  0  0  0  0
   -5.6610    5.4721    0.0685 C   0  0  0  0  0  0  0  0  0  0  0  0
   -8.0048   -2.8534   -3.9471 C   0  0  0  0  0  0  0  0  0  0  0  0
   -1.3735    1.5663    0.5371 B   0  5  1  0  0  0  0  0  0  0  0  0
    8.2216    3.1883    3.0446 O   0  0  0  0  0  0  0  0  0  0  0  0
    7.9707    1.1265    3.8876 O   0  0  0  0  0  0  0  0  0  0  0  0
    9.2930    1.1927    4.4038 C   0  0  0  0  0  0  0  0  0  0  0  0
   -0.1246   -4.0369   -0.3017 O   0  0  0  0  0  0  0  0  0  0  0  0
   -0.4271   -5.3948   -0.5927 C   0  0  0  0  0  0  0  0  0  0  0  0
    1.3328   -4.7200    1.2555 O   0  0  0  0  0  0  0  0  0  0  0  0
   -0.5083   -3.2288    3.6979 O   0  0  0  0  0  0  0  0  0  0  0  0
   -1.4625   -4.9422    2.6100 O   0  0  0  0  0  0  0  0  0  0  0  0
   -0.7043   -5.8478    3.4062 C   0  0  0  0  0  0  0  0  0  0  0  0
   -8.9691   -2.3168   -4.4294 O   0  0  0  0  0  0  0  0  0  0  0  0
   -7.6523   -4.1168   -4.2048 O   0  0  0  0  0  0  0  0  0  0  0  0
   -8.4958   -4.8235   -5.1040 C   0  0  0  0  0  0  0  0  0  0  0  0
   -6.8014    5.8606    0.0464 O   0  0  0  0  0  0  0  0  0  0  0  0
   -4.6178    6.2648    0.3431 O   0  0  0  0  0  0  0  0  0  0  0  0
   -4.9276    7.6189    0.6365 C   0  0  0  0  0  0  0  0  0  0  0  0
    0.9606    7.5339   -1.4243 O   0  0  0  0  0  0  0  0  0  0  0  0
   -1.0985    6.7473   -1.0168 O   0  0  0  0  0  0  0  0  0  0  0  0
   -1.6502    7.8967   -1.6403 C   0  0  0  0  0  0  0  0  0  0  0  0
   -8.5155   -4.3254   -6.0754 H   0  0  0  0  0  0  0  0  0  0  0  0
   -9.5141   -4.8676   -4.7127 H   0  0  0  0  0  0  0  0  0  0  0  0
   -8.0756   -5.8216   -5.1937 H   0  0  0  0  0  0  0  0  0  0  0  0
   -3.9844    8.0998    0.8824 H   0  0  0  0  0  0  0  0  0  0  0  0
   -5.6193    7.6753    1.4794 H   0  0  0  0  0  0  0  0  0  0  0  0
   -5.3927    8.0988   -0.2275 H   0  0  0  0  0  0  0  0  0  0  0  0
   -2.7183    7.7131   -1.7216 H   0  0  0  0  0  0  0  0  0  0  0  0
   -1.2065    8.0435   -2.6270 H   0  0  0  0  0  0  0  0  0  0  0  0
   -1.4571    8.7854   -1.0353 H   0  0  0  0  0  0  0  0  0  0  0  0
   -1.1522   -6.8282    3.2642 H   0  0  0  0  0  0  0  0  0  0  0  0
   -0.7423   -5.5507    4.4553 H   0  0  0  0  0  0  0  0  0  0  0  0
    0.3349   -5.8426    3.0691 H   0  0  0  0  0  0  0  0  0  0  0  0
   -0.8532   -5.8805    0.2871 H   0  0  0  0  0  0  0  0  0  0  0  0
    0.4781   -5.9291   -0.8887 H   0  0  0  0  0  0  0  0  0  0  0  0
   -1.1464   -5.3742   -1.4070 H   0  0  0  0  0  0  0  0  0  0  0  0
    9.4737    0.2416    4.8975 H   0  0  0  0  0  0  0  0  0  0  0  0
    9.3821    2.0178    5.1131 H   0  0  0  0  0  0  0  0  0  0  0  0
   10.0081    1.3484    3.5936 H   0  0  0  0  0  0  0  0  0  0  0  0
   -8.1618   -0.3414   -3.0744 H   0  0  0  0  0  0  0  0  0  0  0  0
   -5.8394   -3.9118   -2.6170 H   0  0  0  0  0  0  0  0  0  0  0  0
   -7.2252    3.4291   -0.7364 H   0  0  0  0  0  0  0  0  0  0  0  0
   -2.9178   -4.2920    0.7066 H   0  0  0  0  0  0  0  0  0  0  0  0
   -3.1534    4.4194    0.0210 H   0  0  0  0  0  0  0  0  0  0  0  0
   -1.2330   -0.9985    2.8501 H   0  0  0  0  0  0  0  0  0  0  0  0
   -1.2397    4.7073    0.1801 H   0  0  0  0  0  0  0  0  0  0  0  0
   -0.5028   -1.6739   -0.4362 H   0  0  0  0  0  0  0  0  0  0  0  0
    2.6128   -2.7243    2.2952 H   0  0  0  0  0  0  0  0  0  0  0  0
    2.7875    5.9533   -0.4905 H   0  0  0  0  0  0  0  0  0  0  0  0
    6.1788    3.9837    1.7913 H   0  0  0  0  0  0  0  0  0  0  0  0
    5.8550    0.0448    3.4507 H   0  0  0  0  0  0  0  0  0  0  0  0
   -0.1843    4.5027    6.2084 C   0  0  0  0  0  0  0  0  0  0  0  0
    0.2317    3.3082    6.7837 C   0  0  0  0  0  0  0  0  0  0  0  0
    1.6092    2.9807    6.8075 C   0  0  1  0  0  0  0  0  0  0  0  0
    2.5278    4.0404    6.4572 C   0  0  0  0  0  0  0  0  0  0  0  0
    2.0647    5.2164    5.8208 C   0  0  0  0  0  0  0  0  0  0  0  0
    0.7166    5.4333    5.6804 C   0  0  0  0  0  0  0  0  0  0  0  0
    2.1805    1.7367    7.2523 C   0  0  0  0  0  0  0  0  0  0  0  0
    3.5164    1.8316    7.7070 C   0  3  0  0  0  0  0  0  0  0  0  0
    4.2870    3.0123    7.4894 C   0  0  0  0  0  0  0  0  0  0  0  0
    3.8145    4.0309    6.7766 N   0  0  0  0  0  0  0  0  0  0  0  0
    1.6199    0.4086    7.2077 C   0  0  0  0  0  0  0  0  0  0  0  0
    2.3864   -0.6348    7.8538 C   0  0  0  0  0  0  0  0  0  0  0  0
    3.5340   -0.4376    8.4901 N   0  0  0  0  0  0  0  0  0  0  0  0
    4.1375    0.7402    8.3776 C   0  0  0  0  0  0  0  0  0  0  0  0
    5.4355    0.8773    8.9098 C   0  0  0  0  0  0  0  0  0  0  0  0
    6.1583    2.0432    8.7054 C   0  0  0  0  0  0  0  0  0  0  0  0
    5.6030    3.0910    7.9816 C   0  0  0  0  0  0  0  0  0  0  0  0
    0.4932   -0.0254    6.4501 C   0  0  0  0  0  0  0  0  0  0  0  0
    0.2767   -1.3934    6.2547 C   0  0  0  0  0  0  0  0  0  0  0  0
    1.0280   -2.3826    6.8970 C   0  0  0  0  0  0  0  0  0  0  0  0
    2.0217   -1.9999    7.7591 C   0  0  0  0  0  0  0  0  0  0  0  0
   -0.6744    2.5273    7.3743 O   0  0  0  0  0  0  0  0  0  0  0  0
   -0.3568    0.7717    5.8090 O   0  0  0  0  0  0  0  0  0  0  0  0
    0.2376    6.6808    5.0242 C   0  0  0  0  0  0  0  0  0  0  0  0
    0.7764   -3.8288    6.6623 C   0  0  0  0  0  0  0  0  0  0  0  0
    7.5509    2.2032    9.2179 C   0  0  0  0  0  0  0  0  0  0  0  0
   -1.8613   -1.3811    8.0597 C   0  0  0  0  0  0  0  0  0  0  0  0
   -2.4951   -0.4623    7.2257 C   0  0  0  0  0  0  0  0  0  0  0  0
   -3.3902   -0.9088    6.2144 C   0  0  1  0  0  0  0  0  0  0  0  0
   -3.4822   -2.3409    6.0458 C   0  0  0  0  0  0  0  0  0  0  0  0
   -2.7793   -3.2393    6.8850 C   0  0  0  0  0  0  0  0  0  0  0  0
   -2.0099   -2.7647    7.9136 C   0  0  0  0  0  0  0  0  0  0  0  0
   -4.3051   -0.0949    5.4545 C   0  0  0  0  0  0  0  0  0  0  0  0
   -5.2662   -0.8060    4.6976 C   0  0  0  0  0  0  0  0  0  0  0  0
   -5.1378   -2.2079    4.4758 C   0  0  0  0  0  0  0  0  0  0  0  0
   -4.2463   -2.9364    5.1362 N   0  0  0  0  0  0  0  0  0  0  0  0
   -4.4771    1.3403    5.4657 C   0  0  0  0  0  0  0  0  0  0  0  0
   -5.8133    1.8122    5.1618 C   0  0  0  0  0  0  0  0  0  0  0  0
   -6.7252    1.0858    4.5319 N   0  0  0  0  0  0  0  0  0  0  0  0
   -6.4194   -0.1558    4.1691 C   0  0  0  0  0  0  0  0  0  0  0  0
   -7.2995   -0.8536    3.3232 C   0  0  0  0  0  0  0  0  0  0  0  0
   -7.0649   -2.1846    2.9984 C   0  0  0  0  0  0  0  0  0  0  0  0
   -6.0061   -2.8653    3.5792 C   0  0  0  0  0  0  0  0  0  0  0  0
   -3.4977    2.3580    5.6385 C   0  0  0  0  0  0  0  0  0  0  0  0
   -3.9097    3.6743    5.8415 C   0  0  0  0  0  0  0  0  0  0  0  0
   -5.2502    4.0678    5.7976 C   0  0  0  0  0  0  0  0  0  0  0  0
   -6.1974    3.1479    5.4258 C   0  0  0  0  0  0  0  0  0  0  0  0
   -2.2264    0.8177    7.4608 O   0  0  0  0  0  0  0  0  0  0  0  0
   -2.1902    2.1507    5.4901 O   0  0  0  0  0  0  0  0  0  0  0  0
   -1.2470   -3.6445    8.8413 C   0  0  0  0  0  0  0  0  0  0  0  0
   -5.6610    5.4721    6.0685 C   0  0  0  0  0  0  0  0  0  0  0  0
   -8.0048   -2.8534    2.0529 C   0  0  0  0  0  0  0  0  0  0  0  0
   -1.3735    1.5663    6.5371 B   0  5  1  0  0  0  0  0  0  0  0  0
    8.2216    3.1883    9.0446 O   0  0  0  0  0  0  0  0  0  0  0  0
    7.9707    1.1265    9.8876 O   0  0  0  0  0  0  0  0  0  0  0  0
    9.2930    1.1927   10.4038 C   0  0  0  0  0  0  0  0  0  0  0  0
   -0.1246   -4.0369    5.6983 O   0  0  0  0  0  0  0  0  0  0  0  0
   -0.4271   -5.3948    5.4073 C   0  0  0  0  0  0  0  0  0  0  0  0
    1.3328   -4.7200    7.2555 O   0  0  0  0  0  0  0  0  0  0  0  0
   -0.5083   -3.2288    9.6979 O   0  0  0  0  0  0  0  0  0  0  0  0
   -1.4625   -4.9422    8.6100 O   0  0  0  0  0  0  0  0  0  0  0  0
   -0.7043   -5.8478    9.4062 C   0  0  0  0  0  0  0  0  0  0  0  0
   -8.9691   -2.3168    1.5706 O   0  0  0  0  0  0  0  0  0  0  0  0
   -7.6523   -4.1168    1.7952 O   0  0  0  0  0  0  0  0  0  0  0  0
   -8.4958   -4.8235    0.8960 C   0  0  0  0  0  0  0  0  0  0  0  0
   -6.8014    5.8606    6.0464 O   0  0  0  0  0  0  0  0  0  0  0  0
   -4.6178    6.2648    6.3431 O   0  0  0  0  0  0  0  0  0  0  0  0
   -4.9276    7.6189    6.6365 C   0  0  0  0  0  0  0  0  0  0  0  0
    0.9606    7.5339    4.5757 O   0  0  0  0  0  0  0  0  0  0  0  0
   -1.0985    6.7473    4.9832 O   0  0  0  0  0  0  0  0  0  0  0  0
   -1.6502    7.8967    4.3597 C   0  0  0  0  0  0  0  0  0  0  0  0
   -8.5155   -4.3254   -0.0754 H   0  0  0  0  0  0  0  0  0  0  0  0
   -9.5141   -4.8676    1.2873 H   0  0  0  0  0  0  0  0  0  0  0  0
   -8.0756   -5.8216    0.8063 H   0  0  0  0  0  0  0  0  0  0  0  0
   -3.9844    8.0998    6.8824 H   0  0  0  0  0  0  0  0  0  0  0  0
   -5.6193    7.6753    7.4794 H   0  0  0  0  0  0  0  0  0  0  0  0
   -5.3927    8.0988    5.7725 H   0  0  0  0  0  0  0  0  0  0  0  0
   -2.7183    7.7131    4.2784 H   0  0  0  0  0  0  0  0  0  0  0  0
   -1.2065    8.0435    3.3730 H   0  0  0  0  0  0  0  0  0  0  0  0
   -1.4571    8.7854    4.9647 H   0  0  0  0  0  0  0  0  0  0  0  0
   -1.1522   -6.8282    9.2642 H   0  0  0  0  0  0  0  0  0  0  0  0
   -0.7423   -5.5507   10.4553 H   0  0  0  0  0  0  0  0  0  0  0  0
    0.3349   -5.8426    9.0691 H   0  0  0  0  0  0  0  0  0  0  0  0
   -0.8532   -5.8805    6.2871 H   0  0  0  0  0  0  0  0  0  0  0  0
    0.4781   -5.9291    5.1113 H   0  0  0  0  0  0  0  0  0  0  0  0
   -1.1464   -5.3742    4.5930 H   0  0  0  0  0  0  0  0  0  0  0  0
    9.4737    0.2416   10.8975 H   0  0  0  0  0  0  0  0  0  0  0  0
    9.3821    2.0178   11.1131 H   0  0  0  0  0  0  0  0  0  0  0  0
   10.0081    1.3484    9.5936 H   0  0  0  0  0  0  0  0  0  0  0  0
   -8.1618   -0.3414    2.9256 H   0  0  0  0  0  0  0  0  0  0  0  0
   -5.8394   -3.9118    3.3830 H   0  0  0  0  0  0  0  0  0  0  0  0
   -7.2252    3.4291    5.2636 H   0  0  0  0  0  0  0  0  0  0  0  0
   -2.9178   -4.2920    6.7066 H   0  0  0  0  0  0  0  0  0  0  0  0
   -3.1534    4.4194    6.0210 H   0  0  0  0  0  0  0  0  0  0  0  0
   -1.2330   -0.9985    8.8501 H   0  0  0  0  0  0  0  0  0  0  0  0
   -1.2397    4.7073    6.1801 H   0  0  0  0  0  0  0  0  0  0  0  0
   -0.5028   -1.6739    5.5638 H   0  0  0  0  0  0  0  0  0  0  0  0
    2.6128   -2.7243    8.2952 H   0  0  0  0  0  0  0  0  0  0  0  0
    2.7875    5.9533    5.5095 H   0  0  0  0  0  0  0  0  0  0  0  0
    6.1788    3.9837    7.7913 H   0  0  0  0  0  0  0  0  0  0  0  0
    5.8550    0.0448    9.4507 H   0  0  0  0  0  0  0  0  0  0  0  0
  1  2  2  0  0  0  0
  1  6  1  0  0  0  0
  1 96  1  0  0  0  0
  2 22  1  0  0  0  0
  3  2  1  1  0  0  0
  3  4  1  0  0  0  0
  3  7  1  0  0  0  0
  4  5  1  0  0  0  0
  4 10  2  0  0  0  0
  5  6  2  0  0  0  0
  5 99  1  0  0  0  0
  6 24  1  0  0  0  0
  7  8  2  0  0  0  0
  7 11  1  0  0  0  0
  8  9  1  0  0  0  0
  8 14  1  0  0  0  0
  9 10  1  0  0  0  0
  9 17  2  0  0  0  0
 11 12  1  0  0  0  0
 11 18  2  0  0  0  0
 12 13  1  0  0  0  0
 12 21  2  0  0  0  0
 13 14  2  0  0  0  0
 14 15  1  0  0  0  0
 15 16  2  0  0  0  0
 15101  1  0  0  0  0
 16 17  1  0  0  0  0
 16 26  1  0  0  0  0
 17100  1  0  0  0  0
 18 19  1  0  0  0  0
 18 23  1  0  0  0  0
 19 20  2  0  0  0  0
 19 97  1  0  0  0  0
 20 21  1  0  0  0  0
 20 25  1  0  0  0  0
 21 98  1  0  0  0  0
 23 53  1  0  0  0  0
 24 69  2  0  0  0  0
 24 70  1  0  0  0  0
 25 57  1  0  0  0  0
 25 59  2  0  0  0  0
 26 54  2  0  0  0  0
 26 55  1  0  0  0  0
 27 28  2  0  0  0  0
 27 32  1  0  0  0  0
 27 95  1  0  0  0  0
 28 48  1  0  0  0  0
 29 28  1  1  0  0  0
 29 30  1  0  0  0  0
 29 33  1  0  0  0  0
 30 31  1  0  0  0  0
 30 36  2  0  0  0  0
 31 32  2  0  0  0  0
 31 93  1  0  0  0  0
 32 50  1  0  0  0  0
 33 34  2  0  0  0  0
 33 37  1  0  0  0  0
 34 35  1  0  0  0  0
 34 40  1  0  0  0  0
 35 36  1  0  0  0  0
 35 43  2  0  0  0  0
 37 38  1  0  0  0  0
 37 44  2  0  0  0  0
 38 39  1  0  0  0  0
 38 47  2  0  0  0  0
 39 40  2  0  0  0  0
 40 41  1  0  0  0  0
 41 42  2  0  0  0  0
 41 90  1  0  0  0  0
 42 43  1  0  0  0  0
 42 52  1  0  0  0  0
 43 91  1  0  0  0  0
 44 45  1  0  0  0  0
 44 49  1  0  0  0  0
 45 46  2  0  0  0  0
 45 94  1  0  0  0  0
 46 47  1  0  0  0  0
 46 51  1  0  0  0  0
 47 92  1  0  0  0  0
 48 53  1  0  0  0  0
 49 53  1  0  0  0  0
 50 60  2  0  0  0  0
 50 61  1  0  0  0  0
 51 66  2  0  0  0  0
 51 67  1  0  0  0  0
 52 63  2  0  0  0  0
 52 64  1  0  0  0  0
 53 22  1  1  0  0  0
 55 56  1  0  0  0  0
 56 87  1  0  0  0  0
 56 88  1  0  0  0  0
 56 89  1  0  0  0  0
 57 58  1  0  0  0  0
 58 84  1  0  0  0  0
 58 85  1  0  0  0  0
 58 86  1  0  0  0  0
 61 62  1  0  0  0  0
 62 81  1  0  0  0  0
 62 82  1  0  0  0  0
 62 83  1  0  0  0  0
 64 65  1  0  0  0  0
 65 72  1  0  0  0  0
 65 73  1  0  0  0  0
 65 74  1  0  0  0  0
 67 68  1  0  0  0  0
 68 75  1  0  0  0  0
 68 76  1  0  0  0  0
 68 77  1  0  0  0  0
 70 71  1  0  0  0  0
 71 78  1  0  0  0  0
 71 79  1  0  0  0  0
 71 80  1  0  0  0  0
102103  2  0  0  0  0
102107  1  0  0  0  0
102197  1  0  0  0  0
103123  1  0  0  0  0
104103  1  1  0  0  0
104105  1  0  0  0  0
104108  1  0  0  0  0
105106  1  0  0  0  0
105111  2  0  0  0  0
106107  2  0  0  0  0
106200  1  0  0  0  0
107125  1  0  0  0  0
108109  2  0  0  0  0
108112  1  0  0  0  0
109110  1  0  0  0  0
109115  1  0  0  0  0
110111  1  0  0  0  0
110118  2  0  0  0  0
112113  1  0  0  0  0
112119  2  0  0  0  0
113114  1  0  0  0  0
113122  2  0  0  0  0
114115  2  0  0  0  0
115116  1  0  0  0  0
116117  2  0  0  0  0
116202  1  0  0  0  0
117118  1  0  0  0  0
117127  1  0  0  0  0
118201  1  0  0  0  0
119120  1  0  0  0  0
119124  1  0  0  0  0
120121  2  0  0  0  0
120198  1  0  0  0  0
121122  1  0  0  0  0
121126  1  0  0  0  0
122199  1  0  0  0  0
124154  1  0  0  0  0
125170  2  0  0  0  0
125171  1  0  0  0  0
126158  1  0  0  0  0
126160  2  0  0  0  0
127155  2  0  0  0  0
127156  1  0  0  0  0
128129  2  0  0  0  0
128133  1  0  0  0  0
128196  1  0  0  0  0
129149  1  0  0  0  0
130129  1  1  0  0  0
130131  1  0  0  0  0
130134  1  0  0  0  0
131132  1  0  0  0  0
131137  2  0  0  0  0
132133  2  0  0  0  0
132194  1  0  0  0  0
133151  1  0  0  0  0
134135  2  0  0  0  0
134138  1  0  0  0  0
135136  1  0  0  0  0
135141  1  0  0  0  0
136137  1  0  0  0  0
136144  2  0  0  0  0
138139  1  0  0  0  0
138145  2  0  0  0  0
139140  1  0  0  0  0
139148  2  0  0  0  0
140141  2  0  0  0  0
141142  1  0  0  0  0
142143  2  0  0  0  0
142191  1  0  0  0  0
143144  1  0  0  0  0
143153  1  0  0  0  0
144192  1  0  0  0  0
145146  1  0  0  0  0
145150  1  0  0  0  0
146147  2  0  0  0  0
146195  1  0  0  0  0
147148  1  0  0  0  0
147152  1  0  0  0  0
148193  1  0  0  0  0
149154  1  0  0  0  0
150154  1  0  0  0  0
151161  2  0  0  0  0
151162  1  0  0  0  0
152167  2  0  0  0  0
152168  1  0  0  0  0
153164  2  0  0  0  0
153165  1  0  0  0  0
154123  1  1  0  0  0
156157  1  0  0  0  0
157188  1  0  0  0  0
157189  1  0  0  0  0
157190  1  0  0  0  0
158159  1  0  0  0  0
159185  1  0  0  0  0
159186  1  0  0  0  0
159187  1  0  0  0  0
162163  1  0  0  0  0
163182  1  0  0  0  0
163183  1  0  0  0  0
163184  1  0  0  0  0
165166  1  0  0  0  0
166173  1  0  0  0  0
166174  1  0  0  0  0
166175  1  0  0  0  0
168169  1  0  0  0  0
169176  1  0  0  0  0
169177  1  0  0  0  0
169178  1  0  0  0  0
171172  1  0  0  0  0
172179  1  0  0  0  0
172180  1  0  0  0  0
172181  1  0  0  0  0
M  CHG  4   8   1  53  -1 109   1 154  -1
M  END
