energy: -200.572153238016 gnorm: 0.000885382075 xtb: 6.6.1 (8d0f1dd)_energy: -200.572153238016 gnorm: 0.000885382075 xtb: 6.6.1 (8d0f1dd)
 OpenBabel10312413523D

202224  0  0  0  0  0  0  0  0999 V2000
   -0.1352    4.4875    0.2885 C   0  0  0  0  0  0  0  0  0  0  0  0
    0.3447    3.2607    0.7304 C   0  0  0  0  0  0  0  0  0  0  0  0
    1.7011    2.9173    0.5139 C   0  0  0  0  0  0  0  0  0  0  0  0
    2.5726    3.9831    0.0739 C   0  0  0  0  0  0  0  0  0  0  0  0
    2.0363    5.1960   -0.4203 C   0  0  0  0  0  0  0  0  0  0  0  0
    0.6873    5.4339   -0.3316 C   0  0  0  0  0  0  0  0  0  0  0  0
    2.3099    1.6442    0.7960 C   0  0  0  0  0  0  0  0  0  0  0  0
    3.7029    1.6980    1.0337 C   0  3  0  0  0  0  0  0  0  0  0  0
    4.4525    2.8795    0.7563 C   0  0  0  0  0  0  0  0  0  0  0  0
    3.8934    3.9408    0.1814 N   0  0  0  0  0  0  0  0  0  0  0  0
    1.7206    0.3283    0.7747 C   0  0  0  0  0  0  0  0  0  0  0  0
    2.5578   -0.7577    1.2366 C   0  0  0  0  0  0  0  0  0  0  0  0
    3.7968   -0.6096    1.6885 N   0  0  0  0  0  0  0  0  0  0  0  0
    4.3999    0.5643    1.5396 C   0  0  0  0  0  0  0  0  0  0  0  0
    5.7687    0.6570    1.8633 C   0  0  0  0  0  0  0  0  0  0  0  0
    6.4729    1.8240    1.6071 C   0  0  0  0  0  0  0  0  0  0  0  0
    5.8310    2.9161    1.0361 C   0  0  0  0  0  0  0  0  0  0  0  0
    0.4784   -0.0497    0.1860 C   0  0  0  0  0  0  0  0  0  0  0  0
    0.2047   -1.4023   -0.0405 C   0  0  0  0  0  0  0  0  0  0  0  0
    1.0262   -2.4339    0.4245 C   0  0  0  0  0  0  0  0  0  0  0  0
    2.1522   -2.1108    1.1350 C   0  0  0  0  0  0  0  0  0  0  0  0
   -0.4688    2.4583    1.4183 O   0  0  0  0  0  0  0  0  0  0  0  0
   -0.4449    0.7919   -0.2708 O   0  0  0  0  0  0  0  0  0  0  0  0
    0.1301    6.7163   -0.8427 C   0  0  0  0  0  0  0  0  0  0  0  0
    0.7095   -3.8620    0.1598 C   0  0  0  0  0  0  0  0  0  0  0  0
    7.9313    1.9428    1.9016 C   0  0  0  0  0  0  0  0  0  0  0  0
   -1.6357   -1.4597    2.0791 C   0  0  0  0  0  0  0  0  0  0  0  0
   -2.3629   -0.4889    1.3936 C   0  0  0  0  0  0  0  0  0  0  0  0
   -3.4027   -0.8677    0.4998 C   0  0  0  0  0  0  0  0  0  0  0  0
   -3.5449   -2.2871    0.2700 C   0  0  0  0  0  0  0  0  0  0  0  0
   -2.7479   -3.2386    0.9512 C   0  0  0  0  0  0  0  0  0  0  0  0
   -1.8305   -2.8311    1.8828 C   0  0  0  0  0  0  0  0  0  0  0  0
   -4.4016   -0.0032   -0.0767 C   0  0  0  0  0  0  0  0  0  0  0  0
   -5.4721   -0.6609   -0.7278 C   0  0  1  0  0  0  0  0  0  0  0  0
   -5.4013   -2.0492   -1.0416 C   0  0  0  0  0  0  0  0  0  0  0  0
   -4.4400   -2.8228   -0.5534 N   0  0  0  0  0  0  0  0  0  0  0  0
   -4.5467    1.4302    0.0403 C   0  0  0  0  0  0  0  0  0  0  0  0
   -5.9045    1.9303   -0.0436 C   0  0  0  0  0  0  0  0  0  0  0  0
   -6.9075    1.2503   -0.5798 N   0  0  0  0  0  0  0  0  0  0  0  0
   -6.6768    0.0292   -1.0514 C   0  0  0  0  0  0  0  0  0  0  0  0
   -7.6788   -0.6108   -1.8023 C   0  0  0  0  0  0  0  0  0  0  0  0
   -7.5154   -1.9234   -2.2296 C   0  0  0  0  0  0  0  0  0  0  0  0
   -6.3981   -2.6463   -1.8415 C   0  0  0  0  0  0  0  0  0  0  0  0
   -3.5364    2.4281    0.1317 C   0  0  0  0  0  0  0  0  0  0  0  0
   -3.8936    3.7312    0.4761 C   0  0  0  0  0  0  0  0  0  0  0  0
   -5.2205    4.1366    0.6454 C   0  0  0  0  0  0  0  0  0  0  0  0
   -6.2254    3.2502    0.3513 C   0  0  0  0  0  0  0  0  0  0  0  0
   -2.0340    0.7727    1.6521 O   0  0  0  0  0  0  0  0  0  0  0  0
   -2.2684    2.2225   -0.2201 O   0  0  0  0  0  0  0  0  0  0  0  0
   -0.9598   -3.7714    2.6411 C   0  0  0  0  0  0  0  0  0  0  0  0
   -5.5672    5.5227    1.0608 C   0  0  0  0  0  0  0  0  0  0  0  0
   -8.5895   -2.5286   -3.0692 C   0  0  0  0  0  0  0  0  0  0  0  0
   -1.3165    1.5596    0.6502 B   0  5  1  0  0  0  0  0  0  0  0  0
    8.5795    2.9363    1.6936 O   0  0  0  0  0  0  0  0  0  0  0  0
    8.4374    0.8200    2.4184 O   0  0  0  0  0  0  0  0  0  0  0  0
    9.8256    0.8476    2.7216 C   0  0  0  0  0  0  0  0  0  0  0  0
   -0.3270   -4.0060   -0.6704 O   0  0  0  0  0  0  0  0  0  0  0  0
   -0.7015   -5.3423   -0.9773 C   0  0  0  0  0  0  0  0  0  0  0  0
    1.3248   -4.7913    0.6220 O   0  0  0  0  0  0  0  0  0  0  0  0
   -0.0984   -3.4143    3.4043 O   0  0  0  0  0  0  0  0  0  0  0  0
   -1.2309   -5.0504    2.3684 O   0  0  0  0  0  0  0  0  0  0  0  0
   -0.3840   -6.0120    2.9909 C   0  0  0  0  0  0  0  0  0  0  0  0
   -9.5991   -1.9542   -3.3871 O   0  0  0  0  0  0  0  0  0  0  0  0
   -8.3012   -3.7813   -3.4363 O   0  0  0  0  0  0  0  0  0  0  0  0
   -9.2733   -4.4282   -4.2461 C   0  0  0  0  0  0  0  0  0  0  0  0
   -6.6936    5.9207    1.2182 O   0  0  0  0  0  0  0  0  0  0  0  0
   -4.4834    6.2869    1.2442 O   0  0  0  0  0  0  0  0  0  0  0  0
   -4.7288    7.6199    1.6673 C   0  0  0  0  0  0  0  0  0  0  0  0
    0.7859    7.5884   -1.3536 O   0  0  0  0  0  0  0  0  0  0  0  0
   -1.1955    6.7910   -0.6736 O   0  0  0  0  0  0  0  0  0  0  0  0
   -1.8222    7.9722   -1.1489 C   0  0  0  0  0  0  0  0  0  0  0  0
   -9.4168   -3.8778   -5.1781 H   0  0  0  0  0  0  0  0  0  0  0  0
  -10.2288   -4.4821   -3.7208 H   0  0  0  0  0  0  0  0  0  0  0  0
   -8.8883   -5.4248   -4.4451 H   0  0  0  0  0  0  0  0  0  0  0  0
   -3.7534    8.0763    1.8153 H   0  0  0  0  0  0  0  0  0  0  0  0
   -5.2998    7.6228    2.5980 H   0  0  0  0  0  0  0  0  0  0  0  0
   -5.2982    8.1615    0.9085 H   0  0  0  0  0  0  0  0  0  0  0  0
   -2.8875    7.8358   -0.9811 H   0  0  0  0  0  0  0  0  0  0  0  0
   -1.6142    8.1113   -2.2120 H   0  0  0  0  0  0  0  0  0  0  0  0
   -1.4529    8.8441   -0.6042 H   0  0  0  0  0  0  0  0  0  0  0  0
   -0.8824   -6.9728    2.8857 H   0  0  0  0  0  0  0  0  0  0  0  0
   -0.2386   -5.7613    4.0430 H   0  0  0  0  0  0  0  0  0  0  0  0
    0.5849   -6.0193    2.4860 H   0  0  0  0  0  0  0  0  0  0  0  0
   -0.9950   -5.8677   -0.0663 H   0  0  0  0  0  0  0  0  0  0  0  0
    0.1342   -5.8732   -1.4389 H   0  0  0  0  0  0  0  0  0  0  0  0
   -1.5392   -5.2688   -1.6662 H   0  0  0  0  0  0  0  0  0  0  0  0
   10.0638   -0.1259    3.1415 H   0  0  0  0  0  0  0  0  0  0  0  0
   10.0409    1.6408    3.4402 H   0  0  0  0  0  0  0  0  0  0  0  0
   10.4072    1.0288    1.8154 H   0  0  0  0  0  0  0  0  0  0  0  0
   -8.5793   -0.0686   -2.0455 H   0  0  0  0  0  0  0  0  0  0  0  0
   -6.2791   -3.6817   -2.1158 H   0  0  0  0  0  0  0  0  0  0  0  0
   -7.2608    3.5499    0.3510 H   0  0  0  0  0  0  0  0  0  0  0  0
   -2.9307   -4.2780    0.7382 H   0  0  0  0  0  0  0  0  0  0  0  0
   -3.1068    4.4566    0.5961 H   0  0  0  0  0  0  0  0  0  0  0  0
   -0.8922   -1.1284    2.7886 H   0  0  0  0  0  0  0  0  0  0  0  0
   -1.1779    4.7040    0.4383 H   0  0  0  0  0  0  0  0  0  0  0  0
   -0.6802   -1.6360   -0.6115 H   0  0  0  0  0  0  0  0  0  0  0  0
    2.8049   -2.8704    1.5332 H   0  0  0  0  0  0  0  0  0  0  0  0
    2.7139    5.9400   -0.8071 H   0  0  0  0  0  0  0  0  0  0  0  0
    6.3874    3.8112    0.8041 H   0  0  0  0  0  0  0  0  0  0  0  0
    6.2521   -0.2082    2.2870 H   0  0  0  0  0  0  0  0  0  0  0  0
   -0.1352    4.4875    6.2885 C   0  0  0  0  0  0  0  0  0  0  0  0
    0.3447    3.2607    6.7304 C   0  0  0  0  0  0  0  0  0  0  0  0
    1.7011    2.9173    6.5139 C   0  0  0  0  0  0  0  0  0  0  0  0
    2.5726    3.9831    6.0739 C   0  0  0  0  0  0  0  0  0  0  0  0
    2.0363    5.1960    5.5797 C   0  0  0  0  0  0  0  0  0  0  0  0
    0.6873    5.4339    5.6684 C   0  0  0  0  0  0  0  0  0  0  0  0
    2.3099    1.6442    6.7960 C   0  0  0  0  0  0  0  0  0  0  0  0
    3.7029    1.6980    7.0337 C   0  3  0  0  0  0  0  0  0  0  0  0
    4.4525    2.8795    6.7563 C   0  0  0  0  0  0  0  0  0  0  0  0
    3.8934    3.9408    6.1814 N   0  0  0  0  0  0  0  0  0  0  0  0
    1.7206    0.3283    6.7747 C   0  0  0  0  0  0  0  0  0  0  0  0
    2.5578   -0.7577    7.2366 C   0  0  0  0  0  0  0  0  0  0  0  0
    3.7968   -0.6096    7.6885 N   0  0  0  0  0  0  0  0  0  0  0  0
    4.3999    0.5643    7.5396 C   0  0  0  0  0  0  0  0  0  0  0  0
    5.7687    0.6570    7.8633 C   0  0  0  0  0  0  0  0  0  0  0  0
    6.4729    1.8240    7.6071 C   0  0  0  0  0  0  0  0  0  0  0  0
    5.8310    2.9161    7.0361 C   0  0  0  0  0  0  0  0  0  0  0  0
    0.4784   -0.0497    6.1860 C   0  0  0  0  0  0  0  0  0  0  0  0
    0.2047   -1.4023    5.9595 C   0  0  0  0  0  0  0  0  0  0  0  0
    1.0262   -2.4339    6.4245 C   0  0  0  0  0  0  0  0  0  0  0  0
    2.1522   -2.1108    7.1350 C   0  0  0  0  0  0  0  0  0  0  0  0
   -0.4688    2.4583    7.4183 O   0  0  0  0  0  0  0  0  0  0  0  0
   -0.4449    0.7919    5.7292 O   0  0  0  0  0  0  0  0  0  0  0  0
    0.1301    6.7163    5.1573 C   0  0  0  0  0  0  0  0  0  0  0  0
    0.7095   -3.8620    6.1598 C   0  0  0  0  0  0  0  0  0  0  0  0
    7.9313    1.9428    7.9016 C   0  0  0  0  0  0  0  0  0  0  0  0
   -1.6357   -1.4597    8.0791 C   0  0  0  0  0  0  0  0  0  0  0  0
   -2.3629   -0.4889    7.3936 C   0  0  0  0  0  0  0  0  0  0  0  0
   -3.4027   -0.8677    6.4998 C   0  0  0  0  0  0  0  0  0  0  0  0
   -3.5449   -2.2871    6.2700 C   0  0  0  0  0  0  0  0  0  0  0  0
   -2.7479   -3.2386    6.9512 C   0  0  0  0  0  0  0  0  0  0  0  0
   -1.8305   -2.8311    7.8828 C   0  0  0  0  0  0  0  0  0  0  0  0
   -4.4016   -0.0032    5.9233 C   0  0  0  0  0  0  0  0  0  0  0  0
   -5.4721   -0.6609    5.2722 C   0  0  1  0  0  0  0  0  0  0  0  0
   -5.4013   -2.0492    4.9584 C   0  0  0  0  0  0  0  0  0  0  0  0
   -4.4400   -2.8228    5.4466 N   0  0  0  0  0  0  0  0  0  0  0  0
   -4.5467    1.4302    6.0403 C   0  0  0  0  0  0  0  0  0  0  0  0
   -5.9045    1.9303    5.9564 C   0  0  0  0  0  0  0  0  0  0  0  0
   -6.9075    1.2503    5.4202 N   0  0  0  0  0  0  0  0  0  0  0  0
   -6.6768    0.0292    4.9486 C   0  0  0  0  0  0  0  0  0  0  0  0
   -7.6788   -0.6108    4.1977 C   0  0  0  0  0  0  0  0  0  0  0  0
   -7.5154   -1.9234    3.7704 C   0  0  0  0  0  0  0  0  0  0  0  0
   -6.3981   -2.6463    4.1585 C   0  0  0  0  0  0  0  0  0  0  0  0
   -3.5364    2.4281    6.1317 C   0  0  0  0  0  0  0  0  0  0  0  0
   -3.8936    3.7312    6.4761 C   0  0  0  0  0  0  0  0  0  0  0  0
   -5.2205    4.1366    6.6454 C   0  0  0  0  0  0  0  0  0  0  0  0
   -6.2254    3.2502    6.3513 C   0  0  0  0  0  0  0  0  0  0  0  0
   -2.0340    0.7727    7.6521 O   0  0  0  0  0  0  0  0  0  0  0  0
   -2.2684    2.2225    5.7799 O   0  0  0  0  0  0  0  0  0  0  0  0
   -0.9598   -3.7714    8.6411 C   0  0  0  0  0  0  0  0  0  0  0  0
   -5.5672    5.5227    7.0608 C   0  0  0  0  0  0  0  0  0  0  0  0
   -8.5895   -2.5286    2.9308 C   0  0  0  0  0  0  0  0  0  0  0  0
   -1.3165    1.5596    6.6502 B   0  5  1  0  0  0  0  0  0  0  0  0
    8.5795    2.9363    7.6936 O   0  0  0  0  0  0  0  0  0  0  0  0
    8.4374    0.8200    8.4184 O   0  0  0  0  0  0  0  0  0  0  0  0
    9.8256    0.8476    8.7216 C   0  0  0  0  0  0  0  0  0  0  0  0
   -0.3270   -4.0060    5.3296 O   0  0  0  0  0  0  0  0  0  0  0  0
   -0.7015   -5.3423    5.0227 C   0  0  0  0  0  0  0  0  0  0  0  0
    1.3248   -4.7913    6.6220 O   0  0  0  0  0  0  0  0  0  0  0  0
   -0.0984   -3.4143    9.4043 O   0  0  0  0  0  0  0  0  0  0  0  0
   -1.2309   -5.0504    8.3684 O   0  0  0  0  0  0  0  0  0  0  0  0
   -0.3840   -6.0120    8.9909 C   0  0  0  0  0  0  0  0  0  0  0  0
   -9.5991   -1.9542    2.6129 O   0  0  0  0  0  0  0  0  0  0  0  0
   -8.3012   -3.7813    2.5637 O   0  0  0  0  0  0  0  0  0  0  0  0
   -9.2733   -4.4282    1.7539 C   0  0  0  0  0  0  0  0  0  0  0  0
   -6.6936    5.9207    7.2182 O   0  0  0  0  0  0  0  0  0  0  0  0
   -4.4834    6.2869    7.2442 O   0  0  0  0  0  0  0  0  0  0  0  0
   -4.7288    7.6199    7.6673 C   0  0  0  0  0  0  0  0  0  0  0  0
    0.7859    7.5884    4.6464 O   0  0  0  0  0  0  0  0  0  0  0  0
   -1.1955    6.7910    5.3264 O   0  0  0  0  0  0  0  0  0  0  0  0
   -1.8222    7.9722    4.8511 C   0  0  0  0  0  0  0  0  0  0  0  0
   -9.4168   -3.8778    0.8219 H   0  0  0  0  0  0  0  0  0  0  0  0
  -10.2288   -4.4821    2.2792 H   0  0  0  0  0  0  0  0  0  0  0  0
   -8.8883   -5.4248    1.5549 H   0  0  0  0  0  0  0  0  0  0  0  0
   -3.7534    8.0763    7.8153 H   0  0  0  0  0  0  0  0  0  0  0  0
   -5.2998    7.6228    8.5980 H   0  0  0  0  0  0  0  0  0  0  0  0
   -5.2982    8.1615    6.9085 H   0  0  0  0  0  0  0  0  0  0  0  0
   -2.8875    7.8358    5.0189 H   0  0  0  0  0  0  0  0  0  0  0  0
   -1.6142    8.1113    3.7880 H   0  0  0  0  0  0  0  0  0  0  0  0
   -1.4529    8.8441    5.3958 H   0  0  0  0  0  0  0  0  0  0  0  0
   -0.8824   -6.9728    8.8857 H   0  0  0  0  0  0  0  0  0  0  0  0
   -0.2386   -5.7613   10.0430 H   0  0  0  0  0  0  0  0  0  0  0  0
    0.5849   -6.0193    8.4860 H   0  0  0  0  0  0  0  0  0  0  0  0
   -0.9950   -5.8677    5.9337 H   0  0  0  0  0  0  0  0  0  0  0  0
    0.1342   -5.8732    4.5611 H   0  0  0  0  0  0  0  0  0  0  0  0
   -1.5392   -5.2688    4.3338 H   0  0  0  0  0  0  0  0  0  0  0  0
   10.0638   -0.1259    9.1415 H   0  0  0  0  0  0  0  0  0  0  0  0
   10.0409    1.6408    9.4402 H   0  0  0  0  0  0  0  0  0  0  0  0
   10.4072    1.0288    7.8154 H   0  0  0  0  0  0  0  0  0  0  0  0
   -8.5793   -0.0686    3.9545 H   0  0  0  0  0  0  0  0  0  0  0  0
   -6.2791   -3.6817    3.8842 H   0  0  0  0  0  0  0  0  0  0  0  0
   -7.2608    3.5499    6.3510 H   0  0  0  0  0  0  0  0  0  0  0  0
   -2.9307   -4.2780    6.7382 H   0  0  0  0  0  0  0  0  0  0  0  0
   -3.1068    4.4566    6.5961 H   0  0  0  0  0  0  0  0  0  0  0  0
   -0.8922   -1.1284    8.7886 H   0  0  0  0  0  0  0  0  0  0  0  0
   -1.1779    4.7040    6.4383 H   0  0  0  0  0  0  0  0  0  0  0  0
   -0.6802   -1.6360    5.3885 H   0  0  0  0  0  0  0  0  0  0  0  0
    2.8049   -2.8704    7.5332 H   0  0  0  0  0  0  0  0  0  0  0  0
    2.7139    5.9400    5.1929 H   0  0  0  0  0  0  0  0  0  0  0  0
    6.3874    3.8112    6.8041 H   0  0  0  0  0  0  0  0  0  0  0  0
    6.2521   -0.2082    8.2870 H   0  0  0  0  0  0  0  0  0  0  0  0
  1  2  2  0  0  0  0
  1 96  1  0  0  0  0
  2  3  1  0  0  0  0
  3  4  2  0  0  0  0
  3  7  1  0  0  0  0
  4  5  1  0  0  0  0
  5  6  2  0  0  0  0
  5 99  1  0  0  0  0
  6  1  1  0  0  0  0
  6 24  1  0  0  0  0
  7  8  1  0  0  0  0
  7 11  2  0  0  0  0
  8  9  1  0  0  0  0
  9 10  2  0  0  0  0
 10  4  1  0  0  0  0
 11 12  1  0  0  0  0
 11 18  1  0  0  0  0
 12 13  2  0  0  0  0
 13 14  1  0  0  0  0
 14  8  1  0  0  0  0
 14 15  2  0  0  0  0
 15 16  1  0  0  0  0
 15101  1  0  0  0  0
 16 17  2  0  0  0  0
 16 26  1  0  0  0  0
 17  9  1  0  0  0  0
 17100  1  0  0  0  0
 18 19  2  0  0  0  0
 19 20  1  0  0  0  0
 19 97  1  0  0  0  0
 20 21  2  0  0  0  0
 20 25  1  0  0  0  0
 21 12  1  0  0  0  0
 21 98  1  0  0  0  0
 22  2  1  0  0  0  0
 23 18  1  0  0  0  0
 24 69  2  0  0  0  0
 24 70  1  0  0  0  0
 25 57  1  0  0  0  0
 25 59  2  0  0  0  0
 26 54  2  0  0  0  0
 26 55  1  0  0  0  0
 27 28  2  0  0  0  0
 27 95  1  0  0  0  0
 28 29  1  0  0  0  0
 28 48  1  0  0  0  0
 29 30  2  0  0  0  0
 29 33  1  0  0  0  0
 30 31  1  0  0  0  0
 31 32  2  0  0  0  0
 31 93  1  0  0  0  0
 32 27  1  0  0  0  0
 32 50  1  0  0  0  0
 33 37  2  0  0  0  0
 34 33  1  1  0  0  0
 34 35  1  0  0  0  0
 35 36  2  0  0  0  0
 36 30  1  0  0  0  0
 37 38  1  0  0  0  0
 37 44  1  0  0  0  0
 38 39  2  0  0  0  0
 39 40  1  0  0  0  0
 40 34  1  0  0  0  0
 40 41  2  0  0  0  0
 41 42  1  0  0  0  0
 41 90  1  0  0  0  0
 42 43  2  0  0  0  0
 42 52  1  0  0  0  0
 43 35  1  0  0  0  0
 43 91  1  0  0  0  0
 44 45  2  0  0  0  0
 44 49  1  0  0  0  0
 45 46  1  0  0  0  0
 45 94  1  0  0  0  0
 46 47  2  0  0  0  0
 46 51  1  0  0  0  0
 47 38  1  0  0  0  0
 47 92  1  0  0  0  0
 50 60  2  0  0  0  0
 50 61  1  0  0  0  0
 51 66  2  0  0  0  0
 51 67  1  0  0  0  0
 52 63  2  0  0  0  0
 52 64  1  0  0  0  0
 53 49  1  6  0  0  0
 53 22  1  0  0  0  0
 53 48  1  0  0  0  0
 53 23  1  0  0  0  0
 55 56  1  0  0  0  0
 56 87  1  0  0  0  0
 56 88  1  0  0  0  0
 56 89  1  0  0  0  0
 57 58  1  0  0  0  0
 58 84  1  0  0  0  0
 58 85  1  0  0  0  0
 58 86  1  0  0  0  0
 61 62  1  0  0  0  0
 62 81  1  0  0  0  0
 62 82  1  0  0  0  0
 62 83  1  0  0  0  0
 64 65  1  0  0  0  0
 65 72  1  0  0  0  0
 65 73  1  0  0  0  0
 65 74  1  0  0  0  0
 67 68  1  0  0  0  0
 68 75  1  0  0  0  0
 68 76  1  0  0  0  0
 68 77  1  0  0  0  0
 70 71  1  0  0  0  0
 71 78  1  0  0  0  0
 71 79  1  0  0  0  0
 71 80  1  0  0  0  0
102103  2  0  0  0  0
102197  1  0  0  0  0
103104  1  0  0  0  0
104105  2  0  0  0  0
104108  1  0  0  0  0
105106  1  0  0  0  0
106107  2  0  0  0  0
106200  1  0  0  0  0
107102  1  0  0  0  0
107125  1  0  0  0  0
108109  1  0  0  0  0
108112  2  0  0  0  0
109110  1  0  0  0  0
110111  2  0  0  0  0
111105  1  0  0  0  0
112113  1  0  0  0  0
112119  1  0  0  0  0
113114  2  0  0  0  0
114115  1  0  0  0  0
115109  1  0  0  0  0
115116  2  0  0  0  0
116117  1  0  0  0  0
116202  1  0  0  0  0
117118  2  0  0  0  0
117127  1  0  0  0  0
118110  1  0  0  0  0
118201  1  0  0  0  0
119120  2  0  0  0  0
120121  1  0  0  0  0
120198  1  0  0  0  0
121122  2  0  0  0  0
121126  1  0  0  0  0
122113  1  0  0  0  0
122199  1  0  0  0  0
123103  1  0  0  0  0
124119  1  0  0  0  0
125170  2  0  0  0  0
125171  1  0  0  0  0
126158  1  0  0  0  0
126160  2  0  0  0  0
127155  2  0  0  0  0
127156  1  0  0  0  0
128129  2  0  0  0  0
128196  1  0  0  0  0
129130  1  0  0  0  0
129149  1  0  0  0  0
130131  2  0  0  0  0
130134  1  0  0  0  0
131132  1  0  0  0  0
132133  2  0  0  0  0
132194  1  0  0  0  0
133128  1  0  0  0  0
133151  1  0  0  0  0
134138  2  0  0  0  0
135134  1  1  0  0  0
135136  1  0  0  0  0
136137  2  0  0  0  0
137131  1  0  0  0  0
138139  1  0  0  0  0
138145  1  0  0  0  0
139140  2  0  0  0  0
140141  1  0  0  0  0
141135  1  0  0  0  0
141142  2  0  0  0  0
142143  1  0  0  0  0
142191  1  0  0  0  0
143144  2  0  0  0  0
143153  1  0  0  0  0
144136  1  0  0  0  0
144192  1  0  0  0  0
145146  2  0  0  0  0
145150  1  0  0  0  0
146147  1  0  0  0  0
146195  1  0  0  0  0
147148  2  0  0  0  0
147152  1  0  0  0  0
148139  1  0  0  0  0
148193  1  0  0  0  0
151161  2  0  0  0  0
151162  1  0  0  0  0
152167  2  0  0  0  0
152168  1  0  0  0  0
153164  2  0  0  0  0
153165  1  0  0  0  0
154150  1  6  0  0  0
154123  1  0  0  0  0
154149  1  0  0  0  0
154124  1  0  0  0  0
156157  1  0  0  0  0
157188  1  0  0  0  0
157189  1  0  0  0  0
157190  1  0  0  0  0
158159  1  0  0  0  0
159185  1  0  0  0  0
159186  1  0  0  0  0
159187  1  0  0  0  0
162163  1  0  0  0  0
163182  1  0  0  0  0
163183  1  0  0  0  0
163184  1  0  0  0  0
165166  1  0  0  0  0
166173  1  0  0  0  0
166174  1  0  0  0  0
166175  1  0  0  0  0
168169  1  0  0  0  0
169176  1  0  0  0  0
169177  1  0  0  0  0
169178  1  0  0  0  0
171172  1  0  0  0  0
172179  1  0  0  0  0
172180  1  0  0  0  0
172181  1  0  0  0  0
M  CHG  4   8   1  53  -1 109   1 154  -1
M  END
