 energy: -401.219319803310 gnorm: 0.000602520001 xtb: 6.7.1 (edcfbbe)
          12102413043D

202224  0     0  0            999 V2000
   -0.7601    4.9102    0.6278 C   0  0  0  0  0  0  0  0  0  0  0  0
   -0.3640    3.7762    1.3246 C   0  0  0  0  0  0  0  0  0  0  0  0
    1.0178    3.5285    1.5157 C   0  0  0  0  0  0  0  0  0  0  0  0
    1.9261    4.6089    1.2042 C   0  0  0  0  0  0  0  0  0  0  0  0
    1.4825    5.7378    0.4767 C   0  0  0  0  0  0  0  0  0  0  0  0
    0.1501    5.8734    0.1774 C   0  0  0  0  0  0  0  0  0  0  0  0
    1.6029    2.3246    2.0400 C   0  0  0  0  0  0  0  0  0  0  0  0
    2.8906    2.4782    2.6005 C   0  0  0  0  0  0  0  0  0  0  0  0
    3.6363    3.6779    2.4008 C   0  0  0  0  0  0  0  0  0  0  0  0
    3.1854    4.6515    1.6175 N   0  0  0  0  0  0  0  0  0  0  0  0
    1.1300    0.9717    1.9164 C   0  0  0  0  0  0  0  0  0  0  0  0
    1.8857   -0.0414    2.6176 C   0  0  0  0  0  0  0  0  0  0  0  0
    2.9461    0.2050    3.3762 N   0  0  0  0  0  0  0  0  0  0  0  0
    3.5030    1.4128    3.3185 C   0  0  0  0  0  0  0  0  0  0  0  0
    4.7663    1.5974    3.9156 C   0  0  0  0  0  0  0  0  0  0  0  0
    5.4668    2.7817    3.7291 C   0  0  0  0  0  0  0  0  0  0  0  0
    4.9226    3.8013    2.9601 C   0  0  0  0  0  0  0  0  0  0  0  0
    0.1479    0.5090    0.9959 C   0  0  0  0  0  0  0  0  0  0  0  0
    0.0886   -0.8539    0.6863 C   0  0  0  0  0  0  0  0  0  0  0  0
    0.8428   -1.8192    1.3695 C   0  0  0  0  0  0  0  0  0  0  0  0
    1.6496   -1.4230    2.4028 C   0  0  0  0  0  0  0  0  0  0  0  0
   -1.3019    2.9779    1.8505 O   0  0  0  0  0  0  0  0  0  0  0  0
   -0.6823    1.2849    0.2988 O   0  0  0  0  0  0  0  0  0  0  0  0
   -0.3248    7.0761   -0.5605 C   0  0  0  0  0  0  0  0  0  0  0  0
    0.7815   -3.2537    0.9861 C   0  0  0  0  0  0  0  0  0  0  0  0
    6.8387    2.9869    4.2830 C   0  0  0  0  0  0  0  0  0  0  0  0
   -2.0875   -1.1958    2.1332 C   0  0  0  0  0  0  0  0  0  0  0  0
   -2.8149   -0.2237    1.4425 C   0  0  0  0  0  0  0  0  0  0  0  0
   -3.7718   -0.6091    0.4647 C   0  0  0  0  0  0  0  0  0  0  0  0
   -3.8324   -2.0152    0.1472 C   0  0  0  0  0  0  0  0  0  0  0  0
   -3.0260   -2.9598    0.8211 C   0  0  0  0  0  0  0  0  0  0  0  0
   -2.2201   -2.5617    1.8540 C   0  0  0  0  0  0  0  0  0  0  0  0
   -4.7982    0.2275   -0.0992 C   0  0  0  0  0  0  0  0  0  0  0  0
   -5.8357   -0.4445   -0.7833 C   0  0  0  0  0  0  0  0  0  0  0  0
   -5.6943   -1.8092   -1.1614 C   0  0  0  0  0  0  0  0  0  0  0  0
   -4.6854   -2.5514   -0.7206 N   0  0  0  0  0  0  0  0  0  0  0  0
   -4.9918    1.6414    0.0747 C   0  0  0  0  0  0  0  0  0  0  0  0
   -6.3573    2.1102   -0.0130 C   0  0  0  0  0  0  0  0  0  0  0  0
   -7.3333    1.4168   -0.5820 N   0  0  0  0  0  0  0  0  0  0  0  0
   -7.0663    0.2125   -1.0785 C   0  0  0  0  0  0  0  0  0  0  0  0
   -8.0540   -0.4547   -1.8256 C   0  0  0  0  0  0  0  0  0  0  0  0
   -7.8418   -1.7481   -2.2877 C   0  0  0  0  0  0  0  0  0  0  0  0
   -6.6745   -2.4224   -1.9678 C   0  0  0  0  0  0  0  0  0  0  0  0
   -3.9922    2.6322    0.2535 C   0  0  0  0  0  0  0  0  0  0  0  0
   -4.3702    3.8983    0.6900 C   0  0  0  0  0  0  0  0  0  0  0  0
   -5.7098    4.2810    0.8137 C   0  0  0  0  0  0  0  0  0  0  0  0
   -6.6974    3.4096    0.4261 C   0  0  0  0  0  0  0  0  0  0  0  0
   -2.6162    1.0326    1.8280 O   0  0  0  0  0  0  0  0  0  0  0  0
   -2.7126    2.4076   -0.0707 O   0  0  0  0  0  0  0  0  0  0  0  0
   -1.4951   -3.5295    2.7109 C   0  0  0  0  0  0  0  0  0  0  0  0
   -6.0918    5.6517    1.2568 C   0  0  0  0  0  0  0  0  0  0  0  0
   -8.9210   -2.4008   -3.0806 C   0  0  0  0  0  0  0  0  0  0  0  0
   -1.8194    1.9370    0.9830 B   0  0  0  0  0  0  0  0  0  0  0  0
    7.5052    3.9639    4.0635 O   0  0  0  0  0  0  0  0  0  0  0  0
    7.2534    1.9504    5.0176 O   0  0  0  0  0  0  0  0  0  0  0  0
    8.5822    2.0379    5.5247 C   0  0  0  0  0  0  0  0  0  0  0  0
    0.0550   -3.4463   -0.1197 O   0  0  0  0  0  0  0  0  0  0  0  0
   -0.0474   -4.7841   -0.5871 C   0  0  0  0  0  0  0  0  0  0  0  0
    1.3428   -4.1455    1.5747 O   0  0  0  0  0  0  0  0  0  0  0  0
   -0.8693   -3.2163    3.6944 O   0  0  0  0  0  0  0  0  0  0  0  0
   -1.6352   -4.7851    2.2902 O   0  0  0  0  0  0  0  0  0  0  0  0
   -0.9576   -5.7669    3.0643 C   0  0  0  0  0  0  0  0  0  0  0  0
   -9.8473   -1.8178   -3.5787 O   0  0  0  0  0  0  0  0  0  0  0  0
   -8.7444   -3.7272   -3.1751 O   0  0  0  0  0  0  0  0  0  0  0  0
   -9.7364   -4.4290   -3.9125 C   0  0  0  0  0  0  0  0  0  0  0  0
   -7.2285    6.0395    1.3301 O   0  0  0  0  0  0  0  0  0  0  0  0
   -5.0282    6.4206    1.5216 O   0  0  0  0  0  0  0  0  0  0  0  0
   -5.3303    7.7318    1.9781 C   0  0  0  0  0  0  0  0  0  0  0  0
    0.3885    7.8421   -1.1549 O   0  0  0  0  0  0  0  0  0  0  0  0
   -1.6549    7.2241   -0.4699 O   0  0  0  0  0  0  0  0  0  0  0  0
   -2.2074    8.3410   -1.1502 C   0  0  0  0  0  0  0  0  0  0  0  0
   -9.7986   -4.0380   -4.9299 H   0  0  0  0  0  0  0  0  0  0  0  0
  -10.7114   -4.3180   -3.4343 H   0  0  0  0  0  0  0  0  0  0  0  0
   -9.4298   -5.4718   -3.9205 H   0  0  0  0  0  0  0  0  0  0  0  0
   -4.3835    8.2653    2.0298 H   0  0  0  0  0  0  0  0  0  0  0  0
   -5.8054    7.6738    2.9594 H   0  0  0  0  0  0  0  0  0  0  0  0
   -6.0136    8.2261    1.2843 H   0  0  0  0  0  0  0  0  0  0  0  0
   -3.2826    8.2850   -0.9999 H   0  0  0  0  0  0  0  0  0  0  0  0
   -1.9657    8.2959   -2.2138 H   0  0  0  0  0  0  0  0  0  0  0  0
   -1.8077    9.2710   -0.7403 H   0  0  0  0  0  0  0  0  0  0  0  0
   -1.2973   -6.7329    2.6986 H   0  0  0  0  0  0  0  0  0  0  0  0
   -1.2031   -5.6344    4.1178 H   0  0  0  0  0  0  0  0  0  0  0  0
    0.1201   -5.6506    2.9260 H   0  0  0  0  0  0  0  0  0  0  0  0
   -0.7250   -5.3506    0.0540 H   0  0  0  0  0  0  0  0  0  0  0  0
    0.9343   -5.2623   -0.5834 H   0  0  0  0  0  0  0  0  0  0  0  0
   -0.4434   -4.7224   -1.5973 H   0  0  0  0  0  0  0  0  0  0  0  0
    8.8687    1.0261    5.8012 H   0  0  0  0  0  0  0  0  0  0  0  0
    8.6196    2.6924    6.3971 H   0  0  0  0  0  0  0  0  0  0  0  0
    9.2501    2.4326    4.7570 H   0  0  0  0  0  0  0  0  0  0  0  0
   -8.9878    0.0464   -2.0265 H   0  0  0  0  0  0  0  0  0  0  0  0
   -6.5031   -3.4363   -2.2923 H   0  0  0  0  0  0  0  0  0  0  0  0
   -7.7325    3.7098    0.4044 H   0  0  0  0  0  0  0  0  0  0  0  0
   -3.1450   -3.9958    0.5527 H   0  0  0  0  0  0  0  0  0  0  0  0
   -3.6002    4.6120    0.9269 H   0  0  0  0  0  0  0  0  0  0  0  0
   -1.4511   -0.8657    2.9422 H   0  0  0  0  0  0  0  0  0  0  0  0
   -1.8073    5.0429    0.4194 H   0  0  0  0  0  0  0  0  0  0  0  0
   -0.5424   -1.1458   -0.1388 H   0  0  0  0  0  0  0  0  0  0  0  0
    2.2194   -2.1357    2.9767 H   0  0  0  0  0  0  0  0  0  0  0  0
    2.2012    6.5008    0.2255 H   0  0  0  0  0  0  0  0  0  0  0  0
    5.4865    4.7034    2.7796 H   0  0  0  0  0  0  0  0  0  0  0  0
    5.1914    0.7819    4.4788 H   0  0  0  0  0  0  0  0  0  0  0  0
    0.4742    3.8323    4.9027 C   0  0  0  0  0  0  0  0  0  0  0  0
    0.7998    2.7580    5.7243 C   0  0  0  0  0  0  0  0  0  0  0  0
    2.1587    2.5172    6.0535 C   0  0  0  0  0  0  0  0  0  0  0  0
    3.0863    3.5853    5.7601 C   0  0  0  0  0  0  0  0  0  0  0  0
    2.6967    4.7060    4.9926 C   0  0  0  0  0  0  0  0  0  0  0  0
    1.4021    4.8158    4.5497 C   0  0  0  0  0  0  0  0  0  0  0  0
    2.6637    1.3596    6.7418 C   0  0  0  0  0  0  0  0  0  0  0  0
    3.9255    1.5466    7.3573 C   0  0  0  0  0  0  0  0  0  0  0  0
    4.7153    2.7043    7.0950 C   0  0  0  0  0  0  0  0  0  0  0  0
    4.3213    3.6428    6.2423 N   0  0  0  0  0  0  0  0  0  0  0  0
    2.1009    0.0287    6.8393 C   0  0  0  0  0  0  0  0  0  0  0  0
    2.7341   -0.8484    7.8012 C   0  0  0  0  0  0  0  0  0  0  0  0
    3.7975   -0.5406    8.5294 N   0  0  0  0  0  0  0  0  0  0  0  0
    4.4506    0.5857    8.2665 C   0  0  0  0  0  0  0  0  0  0  0  0
    5.6873    0.7951    8.9042 C   0  0  0  0  0  0  0  0  0  0  0  0
    6.4505    1.9147    8.6059 C   0  0  0  0  0  0  0  0  0  0  0  0
    5.9742    2.8571    7.7061 C   0  0  0  0  0  0  0  0  0  0  0  0
    1.1063   -0.5810    6.0195 C   0  0  0  0  0  0  0  0  0  0  0  0
    0.8937   -1.9687    6.0805 C   0  0  0  0  0  0  0  0  0  0  0  0
    1.4847   -2.7744    7.0607 C   0  0  0  0  0  0  0  0  0  0  0  0
    2.3282   -2.1929    7.9699 C   0  0  0  0  0  0  0  0  0  0  0  0
   -0.1736    2.0379    6.2841 O   0  0  0  0  0  0  0  0  0  0  0  0
    0.3707    0.0592    5.1049 O   0  0  0  0  0  0  0  0  0  0  0  0
    0.9854    6.0473    3.8249 C   0  0  0  0  0  0  0  0  0  0  0  0
    1.2912   -4.2466    7.1702 C   0  0  0  0  0  0  0  0  0  0  0  0
    7.8028    2.1153    9.1990 C   0  0  0  0  0  0  0  0  0  0  0  0
   -1.6505   -1.8646    7.2863 C   0  0  0  0  0  0  0  0  0  0  0  0
   -2.1052   -0.9657    6.3206 C   0  0  0  0  0  0  0  0  0  0  0  0
   -3.0091   -1.4127    5.3100 C   0  0  0  0  0  0  0  0  0  0  0  0
   -3.2475   -2.8397    5.2669 C   0  0  0  0  0  0  0  0  0  0  0  0
   -2.6812   -3.7248    6.2182 C   0  0  0  0  0  0  0  0  0  0  0  0
   -1.9442   -3.2308    7.2608 C   0  0  0  0  0  0  0  0  0  0  0  0
   -3.8152   -0.6060    4.4249 C   0  0  0  0  0  0  0  0  0  0  0  0
   -4.8177   -1.2825    3.6889 C   0  0  0  0  0  0  0  0  0  0  0  0
   -4.8298   -2.7025    3.6105 C   0  0  0  0  0  0  0  0  0  0  0  0
   -4.0406   -3.4411    4.3849 N   0  0  0  0  0  0  0  0  0  0  0  0
   -3.8327    0.8238    4.2837 C   0  0  0  0  0  0  0  0  0  0  0  0
   -5.0610    1.4256    3.8137 C   0  0  0  0  0  0  0  0  0  0  0  0
   -5.9993    0.7484    3.1724 N   0  0  0  0  0  0  0  0  0  0  0  0
   -5.8376   -0.5627    3.0016 C   0  0  0  0  0  0  0  0  0  0  0  0
   -6.7471   -1.2475    2.1805 C   0  0  0  0  0  0  0  0  0  0  0  0
   -6.6528   -2.6243    2.0102 C   0  0  0  0  0  0  0  0  0  0  0  0
   -5.7137   -3.3528    2.7240 C   0  0  0  0  0  0  0  0  0  0  0  0
   -2.7384    1.7091    4.4665 C   0  0  0  0  0  0  0  0  0  0  0  0
   -3.0133    3.0579    4.6716 C   0  0  0  0  0  0  0  0  0  0  0  0
   -4.2801    3.6095    4.4484 C   0  0  0  0  0  0  0  0  0  0  0  0
   -5.2821    2.8165    3.9487 C   0  0  0  0  0  0  0  0  0  0  0  0
   -1.6834    0.2848    6.4945 O   0  0  0  0  0  0  0  0  0  0  0  0
   -1.4870    1.2756    4.3687 O   0  0  0  0  0  0  0  0  0  0  0  0
   -1.4497   -4.0550    8.3979 C   0  0  0  0  0  0  0  0  0  0  0  0
   -4.5297    5.0572    4.6762 C   0  0  0  0  0  0  0  0  0  0  0  0
   -7.6091   -3.2664    1.0669 C   0  0  0  0  0  0  0  0  0  0  0  0
   -0.7449    0.9211    5.5549 B   0  0  0  0  0  0  0  0  0  0  0  0
    8.6067    2.9110    8.7796 O   0  0  0  0  0  0  0  0  0  0  0  0
    8.0313    1.3037   10.2319 O   0  0  0  0  0  0  0  0  0  0  0  0
    9.3090    1.4161   10.8441 C   0  0  0  0  0  0  0  0  0  0  0  0
    0.7959   -4.8016    6.0658 O   0  0  0  0  0  0  0  0  0  0  0  0
    0.6897   -6.2196    6.0660 C   0  0  0  0  0  0  0  0  0  0  0  0
    1.6105   -4.8793    8.1485 O   0  0  0  0  0  0  0  0  0  0  0  0
   -0.9872   -3.5839    9.4051 O   0  0  0  0  0  0  0  0  0  0  0  0
   -1.5919   -5.3683    8.1929 O   0  0  0  0  0  0  0  0  0  0  0  0
   -1.1156   -6.1991    9.2481 C   0  0  0  0  0  0  0  0  0  0  0  0
   -8.4725   -2.6633    0.4769 O   0  0  0  0  0  0  0  0  0  0  0  0
   -7.4036   -4.5763    0.9329 O   0  0  0  0  0  0  0  0  0  0  0  0
   -8.2856   -5.2537    0.0462 C   0  0  0  0  0  0  0  0  0  0  0  0
   -5.5455    5.6317    4.3707 O   0  0  0  0  0  0  0  0  0  0  0  0
   -3.5021    5.6594    5.2838 O   0  0  0  0  0  0  0  0  0  0  0  0
   -3.6696    7.0352    5.5859 C   0  0  0  0  0  0  0  0  0  0  0  0
    1.7400    6.9293    3.5036 O   0  0  0  0  0  0  0  0  0  0  0  0
   -0.3364    6.0853    3.6130 O   0  0  0  0  0  0  0  0  0  0  0  0
   -0.8590    7.2656    3.0226 C   0  0  0  0  0  0  0  0  0  0  0  0
   -8.2737   -4.7810   -0.9378 H   0  0  0  0  0  0  0  0  0  0  0  0
   -9.3050   -5.2254    0.4369 H   0  0  0  0  0  0  0  0  0  0  0  0
   -7.9279   -6.2784   -0.0109 H   0  0  0  0  0  0  0  0  0  0  0  0
   -2.8043    7.3229    6.1777 H   0  0  0  0  0  0  0  0  0  0  0  0
   -4.5902    7.1901    6.1530 H   0  0  0  0  0  0  0  0  0  0  0  0
   -3.7197    7.6238    4.6677 H   0  0  0  0  0  0  0  0  0  0  0  0
   -1.7661    6.9775    2.4959 H   0  0  0  0  0  0  0  0  0  0  0  0
   -0.1314    7.6990    2.3337 H   0  0  0  0  0  0  0  0  0  0  0  0
   -1.0856    7.9936    3.8054 H   0  0  0  0  0  0  0  0  0  0  0  0
   -1.3335   -7.2223    8.9530 H   0  0  0  0  0  0  0  0  0  0  0  0
   -1.6238   -5.9493   10.1810 H   0  0  0  0  0  0  0  0  0  0  0  0
   -0.0417   -6.0475    9.3784 H   0  0  0  0  0  0  0  0  0  0  0  0
    1.3586   -6.6411    6.8199 H   0  0  0  0  0  0  0  0  0  0  0  0
    0.9696   -6.5649    5.0733 H   0  0  0  0  0  0  0  0  0  0  0  0
   -0.3376   -6.5068    6.2952 H   0  0  0  0  0  0  0  0  0  0  0  0
    9.3158    0.7033   11.6642 H   0  0  0  0  0  0  0  0  0  0  0  0
    9.4640    2.4310   11.2149 H   0  0  0  0  0  0  0  0  0  0  0  0
   10.0957    1.1823   10.1239 H   0  0  0  0  0  0  0  0  0  0  0  0
   -7.5281   -0.6915    1.6847 H   0  0  0  0  0  0  0  0  0  0  0  0
   -5.6548   -4.4249    2.6343 H   0  0  0  0  0  0  0  0  0  0  0  0
   -6.2326    3.2234    3.6433 H   0  0  0  0  0  0  0  0  0  0  0  0
   -2.9241   -4.7710    6.1291 H   0  0  0  0  0  0  0  0  0  0  0  0
   -2.2251    3.7093    5.0020 H   0  0  0  0  0  0  0  0  0  0  0  0
   -1.0635   -1.4691    8.1017 H   0  0  0  0  0  0  0  0  0  0  0  0
   -0.5357    3.9281    4.5501 H   0  0  0  0  0  0  0  0  0  0  0  0
    0.2557   -2.4055    5.3276 H   0  0  0  0  0  0  0  0  0  0  0  0
    2.7968   -2.7706    8.7503 H   0  0  0  0  0  0  0  0  0  0  0  0
    3.4174    5.4893    4.8225 H   0  0  0  0  0  0  0  0  0  0  0  0
    6.5560    3.7340    7.4670 H   0  0  0  0  0  0  0  0  0  0  0  0
    6.0327    0.0500    9.6021 H   0  0  0  0  0  0  0  0  0  0  0  0
  1  2  2  0  0  0  0
  1  6  1  0  0  0  0
  1 96  1  0  0  0  0
  2 22  1  0  0  0  0
  3  2  1  0  0  0  0
  3  4  1  0  0  0  0
  3  7  1  0  0  0  0
  4  5  1  0  0  0  0
  4 10  2  0  0  0  0
  5  6  2  0  0  0  0
  5 99  1  0  0  0  0
  6 24  1  0  0  0  0
  7  8  2  0  0  0  0
  7 11  1  0  0  0  0
  8  9  1  0  0  0  0
  8 14  1  0  0  0  0
  9 10  1  0  0  0  0
  9 17  2  0  0  0  0
 11 12  1  0  0  0  0
 11 18  2  0  0  0  0
 12 13  1  0  0  0  0
 12 21  2  0  0  0  0
 13 14  2  0  0  0  0
 14 15  1  0  0  0  0
 15 16  2  0  0  0  0
 15101  1  0  0  0  0
 16 17  1  0  0  0  0
 16 26  1  0  0  0  0
 17100  1  0  0  0  0
 18 19  1  0  0  0  0
 18 23  1  0  0  0  0
 19 20  2  0  0  0  0
 19 97  1  0  0  0  0
 20 21  1  0  0  0  0
 20 25  1  0  0  0  0
 21 98  1  0  0  0  0
 23 53  1  0  0  0  0
 24 69  2  0  0  0  0
 24 70  1  0  0  0  0
 25 57  1  0  0  0  0
 25 59  2  0  0  0  0
 26 54  2  0  0  0  0
 26 55  1  0  0  0  0
 27 28  2  0  0  0  0
 27 32  1  0  0  0  0
 27 95  1  0  0  0  0
 28 48  1  0  0  0  0
 29 28  1  0  0  0  0
 29 30  1  0  0  0  0
 29 33  1  0  0  0  0
 30 31  1  0  0  0  0
 30 36  2  0  0  0  0
 31 32  2  0  0  0  0
 31 93  1  0  0  0  0
 32 50  1  0  0  0  0
 33 34  2  0  0  0  0
 33 37  1  0  0  0  0
 34 35  1  0  0  0  0
 34 40  1  0  0  0  0
 35 36  1  0  0  0  0
 35 43  2  0  0  0  0
 37 38  1  0  0  0  0
 37 44  2  0  0  0  0
 38 39  1  0  0  0  0
 38 47  2  0  0  0  0
 39 40  2  0  0  0  0
 40 41  1  0  0  0  0
 41 42  2  0  0  0  0
 41 90  1  0  0  0  0
 42 43  1  0  0  0  0
 42 52  1  0  0  0  0
 43 91  1  0  0  0  0
 44 45  1  0  0  0  0
 44 49  1  0  0  0  0
 45 46  2  0  0  0  0
 45 94  1  0  0  0  0
 46 47  1  0  0  0  0
 46 51  1  0  0  0  0
 47 92  1  0  0  0  0
 48 53  1  0  0  0  0
 49 53  1  0  0  0  0
 50 60  2  0  0  0  0
 50 61  1  0  0  0  0
 51 66  2  0  0  0  0
 51 67  1  0  0  0  0
 52 63  2  0  0  0  0
 52 64  1  0  0  0  0
 53 22  1  0  0  0  0
 55 56  1  0  0  0  0
 56 87  1  0  0  0  0
 56 88  1  0  0  0  0
 56 89  1  0  0  0  0
 57 58  1  0  0  0  0
 58 84  1  0  0  0  0
 58 85  1  0  0  0  0
 58 86  1  0  0  0  0
 61 62  1  0  0  0  0
 62 81  1  0  0  0  0
 62 82  1  0  0  0  0
 62 83  1  0  0  0  0
 64 65  1  0  0  0  0
 65 72  1  0  0  0  0
 65 73  1  0  0  0  0
 65 74  1  0  0  0  0
 67 68  1  0  0  0  0
 68 75  1  0  0  0  0
 68 76  1  0  0  0  0
 68 77  1  0  0  0  0
 70 71  1  0  0  0  0
 71 78  1  0  0  0  0
 71 79  1  0  0  0  0
 71 80  1  0  0  0  0
102103  2  0  0  0  0
102107  1  0  0  0  0
102197  1  0  0  0  0
103123  1  0  0  0  0
104103  1  0  0  0  0
104105  1  0  0  0  0
104108  1  0  0  0  0
105106  1  0  0  0  0
105111  2  0  0  0  0
106107  2  0  0  0  0
106200  1  0  0  0  0
107125  1  0  0  0  0
108109  2  0  0  0  0
108112  1  0  0  0  0
109110  1  0  0  0  0
109115  1  0  0  0  0
110111  1  0  0  0  0
110118  2  0  0  0  0
112113  1  0  0  0  0
112119  2  0  0  0  0
113114  1  0  0  0  0
113122  2  0  0  0  0
114115  2  0  0  0  0
115116  1  0  0  0  0
116117  2  0  0  0  0
116202  1  0  0  0  0
117118  1  0  0  0  0
117127  1  0  0  0  0
118201  1  0  0  0  0
119120  1  0  0  0  0
119124  1  0  0  0  0
120121  2  0  0  0  0
120198  1  0  0  0  0
121122  1  0  0  0  0
121126  1  0  0  0  0
122199  1  0  0  0  0
124154  1  0  0  0  0
125170  2  0  0  0  0
125171  1  0  0  0  0
126158  1  0  0  0  0
126160  2  0  0  0  0
127155  2  0  0  0  0
127156  1  0  0  0  0
128129  2  0  0  0  0
128133  1  0  0  0  0
128196  1  0  0  0  0
129149  1  0  0  0  0
130129  1  0  0  0  0
130131  1  0  0  0  0
130134  1  0  0  0  0
131132  1  0  0  0  0
131137  2  0  0  0  0
132133  2  0  0  0  0
132194  1  0  0  0  0
133151  1  0  0  0  0
134135  2  0  0  0  0
134138  1  0  0  0  0
135136  1  0  0  0  0
135141  1  0  0  0  0
136137  1  0  0  0  0
136144  2  0  0  0  0
138139  1  0  0  0  0
138145  2  0  0  0  0
139140  1  0  0  0  0
139148  2  0  0  0  0
140141  2  0  0  0  0
141142  1  0  0  0  0
142143  2  0  0  0  0
142191  1  0  0  0  0
143144  1  0  0  0  0
143153  1  0  0  0  0
144192  1  0  0  0  0
145146  1  0  0  0  0
145150  1  0  0  0  0
146147  2  0  0  0  0
146195  1  0  0  0  0
147148  1  0  0  0  0
147152  1  0  0  0  0
148193  1  0  0  0  0
149154  1  0  0  0  0
150154  1  0  0  0  0
151161  2  0  0  0  0
151162  1  0  0  0  0
152167  2  0  0  0  0
152168  1  0  0  0  0
153164  2  0  0  0  0
153165  1  0  0  0  0
154123  1  0  0  0  0
156157  1  0  0  0  0
157188  1  0  0  0  0
157189  1  0  0  0  0
157190  1  0  0  0  0
158159  1  0  0  0  0
159185  1  0  0  0  0
159186  1  0  0  0  0
159187  1  0  0  0  0
162163  1  0  0  0  0
163182  1  0  0  0  0
163183  1  0  0  0  0
163184  1  0  0  0  0
165166  1  0  0  0  0
166173  1  0  0  0  0
166174  1  0  0  0  0
166175  1  0  0  0  0
168169  1  0  0  0  0
169176  1  0  0  0  0
169177  1  0  0  0  0
169178  1  0  0  0  0
171172  1  0  0  0  0
172179  1  0  0  0  0
172180  1  0  0  0  0
172181  1  0  0  0  0
M  CHG  1   8   1
M  CHG  1  53  -1
M  CHG  1 109   1
M  CHG  1 154  -1
M  END
