 energy: -130.505739312020 gnorm: 0.000182962682 xtb: 6.7.1 (edcfbbe)
          03032514193D

 78 82  0     0  0            999 V2000
    0.7305    3.2273   -3.2186 C   0  0  0  0  0  0  0  0  0  0  0  0
    2.7169   -3.1381   -0.2264 C   0  0  0  0  0  0  0  0  0  0  0  0
   -3.4548    0.4641   -2.3767 C   0  0  0  0  0  0  0  0  0  0  0  0
   -2.4205   -0.1750   -1.7184 C   0  0  0  0  0  0  0  0  0  0  0  0
   -1.1080    0.3640   -1.7631 C   0  0  0  0  0  0  0  0  0  0  0  0
   -0.8382    1.4275   -2.6563 C   0  0  0  0  0  0  0  0  0  0  0  0
   -1.8769    2.0285   -3.3433 C   0  0  0  0  0  0  0  0  0  0  0  0
   -3.1813    1.5837   -3.1482 C   0  0  0  0  0  0  0  0  0  0  0  0
   -0.0335   -0.1795   -0.9978 C   0  0  0  0  0  0  0  0  0  0  0  0
    1.2816   -0.0085   -1.5212 C   0  0  0  0  0  0  0  0  0  0  0  0
    1.5383    1.0227   -2.4472 C   0  0  0  0  0  0  0  0  0  0  0  0
    0.4824    1.8713   -2.7931 N   0  0  0  0  0  0  0  0  0  0  0  0
   -0.1546   -0.8600    0.2437 C   0  0  0  0  0  0  0  0  0  0  0  0
    0.8773   -1.7555    0.6308 C   0  0  0  0  0  0  0  0  0  0  0  0
    1.9957   -1.8886   -0.1994 N   0  0  0  0  0  0  0  0  0  0  0  0
    2.3164   -0.8667   -1.0981 C   0  0  0  0  0  0  0  0  0  0  0  0
    3.6031   -0.6581   -1.5654 C   0  0  0  0  0  0  0  0  0  0  0  0
    3.8279    0.3192   -2.5297 C   0  0  0  0  0  0  0  0  0  0  0  0
    2.8102    1.1489   -2.9809 C   0  0  0  0  0  0  0  0  0  0  0  0
   -1.2154   -0.6339    1.1564 C   0  0  0  0  0  0  0  0  0  0  0  0
   -1.3443   -1.4082    2.2950 C   0  0  0  0  0  0  0  0  0  0  0  0
   -0.3929   -2.3652    2.5827 C   0  0  0  0  0  0  0  0  0  0  0  0
    0.7545   -2.4930    1.7902 C   0  0  0  0  0  0  0  0  0  0  0  0
   -2.1613    0.3704    0.9528 O   0  0  0  0  0  0  0  0  0  0  0  0
   -2.5653   -1.3678   -1.0535 O   0  0  0  0  0  0  0  0  0  0  0  0
   -4.5596    2.4205   -3.9154 S   0  0  0  0  0  0  0  0  0  0  0  0
   -0.5519   -3.4690    3.9753 S   0  0  0  0  0  0  0  0  0  0  0  0
    5.5019    0.5020   -3.1294 S   0  0  0  0  0  0  0  0  0  0  0  0
    5.4715    1.6525   -4.0270 O   0  0  0  0  0  0  0  0  0  0  0  0
    5.5569   -0.8961   -4.1141 O   0  0  0  0  0  0  0  0  0  0  0  0
    4.6828   -0.8798   -5.2050 C   0  0  0  0  0  0  0  0  0  0  0  0
   -3.9664    3.4473   -4.7672 O   0  0  0  0  0  0  0  0  0  0  0  0
   -5.1582    3.2222   -2.5268 O   0  0  0  0  0  0  0  0  0  0  0  0
   -4.2781    4.1470   -1.9594 C   0  0  0  0  0  0  0  0  0  0  0  0
   -1.7748   -3.0675    4.6621 O   0  0  0  0  0  0  0  0  0  0  0  0
   -0.9139   -4.8925    3.0948 O   0  0  0  0  0  0  0  0  0  0  0  0
   -2.0917   -4.8317    2.3437 C   0  0  0  0  0  0  0  0  0  0  0  0
   -4.4755    0.1212   -2.3038 H   0  0  0  0  0  0  0  0  0  0  0  0
   -1.7331    2.8611   -4.0118 H   0  0  0  0  0  0  0  0  0  0  0  0
   -2.1867   -1.2710    2.9565 H   0  0  0  0  0  0  0  0  0  0  0  0
    1.4981   -3.2124    2.0946 H   0  0  0  0  0  0  0  0  0  0  0  0
    4.4420   -1.2508   -1.2326 H   0  0  0  0  0  0  0  0  0  0  0  0
    3.0604    1.8796   -3.7343 H   0  0  0  0  0  0  0  0  0  0  0  0
    1.8151   -4.3053   -0.6505 C   0  0  0  0  0  0  0  0  0  0  0  0
    2.5987   -5.6084   -0.7308 C   0  0  0  0  0  0  0  0  0  0  0  0
    0.1812    4.2414   -2.2053 C   0  0  0  0  0  0  0  0  0  0  0  0
    0.4030    5.6716   -2.6777 C   0  0  0  0  0  0  0  0  0  0  0  0
   -1.6419    1.6715    1.0653 C   0  0  0  0  0  0  0  0  0  0  0  0
   -3.8500   -1.7325   -0.6338 C   0  0  0  0  0  0  0  0  0  0  0  0
   -4.8646    4.8368   -1.3512 H   0  0  0  0  0  0  0  0  0  0  0  0
   -3.7630    4.7086   -2.7478 H   0  0  0  0  0  0  0  0  0  0  0  0
   -3.5332    3.6445   -1.3311 H   0  0  0  0  0  0  0  0  0  0  0  0
   -2.3972   -5.8551    2.1225 H   0  0  0  0  0  0  0  0  0  0  0  0
   -1.9330   -4.2824    1.4084 H   0  0  0  0  0  0  0  0  0  0  0  0
   -2.8801   -4.3342    2.9203 H   0  0  0  0  0  0  0  0  0  0  0  0
    5.0505   -1.5999   -5.9369 H   0  0  0  0  0  0  0  0  0  0  0  0
    4.6649    0.1188   -5.6566 H   0  0  0  0  0  0  0  0  0  0  0  0
    3.6664   -1.1509   -4.8977 H   0  0  0  0  0  0  0  0  0  0  0  0
    3.1704   -3.3523    0.7501 H   0  0  0  0  0  0  0  0  0  0  0  0
    3.5246   -3.0525   -0.9536 H   0  0  0  0  0  0  0  0  0  0  0  0
    1.3807   -4.0693   -1.6243 H   0  0  0  0  0  0  0  0  0  0  0  0
    0.9953   -4.4120    0.0604 H   0  0  0  0  0  0  0  0  0  0  0  0
    3.4106   -5.5252   -1.4514 H   0  0  0  0  0  0  0  0  0  0  0  0
    1.9498   -6.4259   -1.0365 H   0  0  0  0  0  0  0  0  0  0  0  0
    3.0257   -5.8556    0.2393 H   0  0  0  0  0  0  0  0  0  0  0  0
   -2.4564    2.3509    0.8128 H   0  0  0  0  0  0  0  0  0  0  0  0
   -0.8060    1.8410    0.3794 H   0  0  0  0  0  0  0  0  0  0  0  0
   -1.3047    1.8731    2.0911 H   0  0  0  0  0  0  0  0  0  0  0  0
   -3.7172   -2.5922    0.0234 H   0  0  0  0  0  0  0  0  0  0  0  0
   -4.4899   -2.0223   -1.4781 H   0  0  0  0  0  0  0  0  0  0  0  0
   -4.3275   -0.9231   -0.0735 H   0  0  0  0  0  0  0  0  0  0  0  0
    0.0262    6.3803   -1.9433 H   0  0  0  0  0  0  0  0  0  0  0  0
   -0.1163    5.8442   -3.6181 H   0  0  0  0  0  0  0  0  0  0  0  0
    1.4631    5.8646   -2.8310 H   0  0  0  0  0  0  0  0  0  0  0  0
    0.6809    4.0820   -1.2468 H   0  0  0  0  0  0  0  0  0  0  0  0
   -0.8851    4.0651   -2.0571 H   0  0  0  0  0  0  0  0  0  0  0  0
    0.2915    3.4137   -4.2060 H   0  0  0  0  0  0  0  0  0  0  0  0
    1.8063    3.3768   -3.3017 H   0  0  0  0  0  0  0  0  0  0  0  0
  1 46  1  0  0  0  0
  1 77  1  0  0  0  0
  1 78  1  0  0  0  0
  2 44  1  0  0  0  0
  2 59  1  0  0  0  0
  2 60  1  0  0  0  0
  3  4  2  0  0  0  0
  3 38  1  0  0  0  0
  4  5  1  0  0  0  0
  4 25  1  0  0  0  0
  5  6  2  0  0  0  0
  6  7  1  0  0  0  0
  7  8  2  0  0  0  0
  7 39  1  0  0  0  0
  8  3  1  0  0  0  0
  8 26  1  0  0  0  0
  9  5  1  0  0  0  0
  9 10  1  0  0  0  0
 10 11  2  0  0  0  0
 11 12  1  0  0  0  0
 12  1  1  0  0  0  0
 12  6  1  0  0  0  0
 13 14  2  0  0  0  0
 13 20  1  0  0  0  0
 13  9  1  0  0  0  0
 14 15  1  0  0  0  0
 15  2  1  0  0  0  0
 15 16  1  0  0  0  0
 16 10  1  0  0  0  0
 16 17  2  0  0  0  0
 17 18  1  0  0  0  0
 17 42  1  0  0  0  0
 18 19  2  0  0  0  0
 18 28  1  0  0  0  0
 19 11  1  0  0  0  0
 19 43  1  0  0  0  0
 20 21  2  0  0  0  0
 21 22  1  0  0  0  0
 21 40  1  0  0  0  0
 22 23  2  0  0  0  0
 22 27  1  0  0  0  0
 23 14  1  0  0  0  0
 23 41  1  0  0  0  0
 24 48  1  0  0  0  0
 24 20  1  0  0  0  0
 25 49  1  0  0  0  0
 26 32  2  0  0  0  0
 26 33  1  0  0  0  0
 27 35  2  0  0  0  0
 27 36  1  0  0  0  0
 28 29  2  0  0  0  0
 28 30  1  0  0  0  0
 30 31  1  0  0  0  0
 31 56  1  0  0  0  0
 31 57  1  0  0  0  0
 31 58  1  0  0  0  0
 33 34  1  0  0  0  0
 34 50  1  0  0  0  0
 34 51  1  0  0  0  0
 34 52  1  0  0  0  0
 36 37  1  0  0  0  0
 37 53  1  0  0  0  0
 37 54  1  0  0  0  0
 37 55  1  0  0  0  0
 44 45  1  0  0  0  0
 44 61  1  0  0  0  0
 44 62  1  0  0  0  0
 45 63  1  0  0  0  0
 45 64  1  0  0  0  0
 45 65  1  0  0  0  0
 46 47  1  0  0  0  0
 46 75  1  0  0  0  0
 46 76  1  0  0  0  0
 47 72  1  0  0  0  0
 47 73  1  0  0  0  0
 47 74  1  0  0  0  0
 48 66  1  0  0  0  0
 48 67  1  0  0  0  0
 48 68  1  0  0  0  0
 49 69  1  0  0  0  0
 49 70  1  0  0  0  0
 49 71  1  0  0  0  0
M  CHG  1   1  -1
M  END
