 energy: -28.486919337168 gnorm: 0.000321815183 xtb: 6.7.1 (edcfbbe)
          02282513453D

156164  0     0  0            999 V2000
   -1.3060    1.6762    0.0523 C   0  0  0  0  0  0  0  0  0  0  0  0
   -0.9651    0.3373   -0.1715 C   0  0  0  0  0  0  0  0  0  0  0  0
    0.2914   -0.1363    0.3425 C   0  0  0  0  0  0  0  0  0  0  0  0
    1.2467    0.8366    0.7278 C   0  0  0  0  0  0  0  0  0  0  0  0
    0.8653    2.1558    0.8951 C   0  0  0  0  0  0  0  0  0  0  0  0
   -0.4253    2.5840    0.6117 C   0  0  0  0  0  0  0  0  0  0  0  0
    0.6594   -1.5308    0.3495 C   0  0  0  0  0  0  0  0  0  0  0  0
    2.0536   -1.8532    0.2385 C   0  0  0  0  0  0  0  0  0  0  0  0
    3.0452   -0.8726    0.4579 C   0  0  0  0  0  0  0  0  0  0  0  0
    2.6635    0.4868    0.8339 C   0  0  0  0  0  0  0  0  0  0  0  0
   -0.2897   -2.6105    0.4339 C   0  0  0  0  0  0  0  0  0  0  0  0
    0.0902   -3.9070    0.0153 C   0  0  0  0  0  0  0  0  0  0  0  0
    1.4801   -4.2055   -0.3285 C   0  0  0  0  0  0  0  0  0  0  0  0
    2.4688   -3.1487   -0.1344 C   0  0  0  0  0  0  0  0  0  0  0  0
    3.8140   -3.4169   -0.3228 C   0  0  0  0  0  0  0  0  0  0  0  0
    4.7917   -2.4532   -0.1152 C   0  0  0  0  0  0  0  0  0  0  0  0
    4.3809   -1.1902    0.2858 C   0  0  0  0  0  0  0  0  0  0  0  0
   -1.5979   -2.4518    1.0021 C   0  0  0  0  0  0  0  0  0  0  0  0
   -2.5082   -3.5085    0.8903 C   0  0  0  0  0  0  0  0  0  0  0  0
   -2.1596   -4.7388    0.3664 C   0  0  0  0  0  0  0  0  0  0  0  0
   -0.8426   -4.9279   -0.0304 C   0  0  0  0  0  0  0  0  0  0  0  0
   -1.8859   -1.2921    1.6976 O   0  0  0  0  0  0  0  0  0  0  0  0
   -1.7368   -0.5239   -0.9325 O   0  0  0  0  0  0  0  0  0  0  0  0
    3.5017    1.3170    1.1515 O   0  0  0  0  0  0  0  0  0  0  0  0
    1.8148   -5.3186   -0.7075 O   0  0  0  0  0  0  0  0  0  0  0  0
   -3.2427   -1.1043    2.0191 C   0  0  0  0  0  0  0  0  0  0  0  0
   -2.8956    0.0449   -1.4936 C   0  0  0  0  0  0  0  0  0  0  0  0
   -3.2185   -5.8457    0.2574 C   0  0  0  0  0  0  0  0  0  0  0  0
   -2.6096   -7.1634   -0.2576 C   0  0  0  0  0  0  0  0  0  0  0  0
   -4.3152   -5.3928   -0.7222 C   0  0  0  0  0  0  0  0  0  0  0  0
   -0.8729    4.0336    0.8346 C   0  0  0  0  0  0  0  0  0  0  0  0
   -2.1114    4.0379    1.7483 C   0  0  0  0  0  0  0  0  0  0  0  0
    0.2370    4.8671    1.5019 C   0  0  0  0  0  0  0  0  0  0  0  0
   -1.2218    4.6775   -0.5186 C   0  0  0  0  0  0  0  0  0  0  0  0
    6.2818   -2.7295   -0.3586 C   0  0  0  0  0  0  0  0  0  0  0  0
    7.0977   -2.3340    0.8865 C   0  0  0  0  0  0  0  0  0  0  0  0
    6.7490   -1.8986   -1.5665 C   0  0  0  0  0  0  0  0  0  0  0  0
    6.5414   -4.2192   -0.6536 C   0  0  0  0  0  0  0  0  0  0  0  0
    6.6180   -0.8330   -1.3837 H   0  0  0  0  0  0  0  0  0  0  0  0
    6.1753   -2.1573   -2.4558 H   0  0  0  0  0  0  0  0  0  0  0  0
    7.8025   -2.0762   -1.7795 H   0  0  0  0  0  0  0  0  0  0  0  0
    8.1575   -2.5369    0.7362 H   0  0  0  0  0  0  0  0  0  0  0  0
    6.7700   -2.8961    1.7595 H   0  0  0  0  0  0  0  0  0  0  0  0
    6.9934   -1.2742    1.1122 H   0  0  0  0  0  0  0  0  0  0  0  0
    7.6059   -4.4061   -0.7910 H   0  0  0  0  0  0  0  0  0  0  0  0
    6.0336   -4.5341   -1.5644 H   0  0  0  0  0  0  0  0  0  0  0  0
    6.1978   -4.8466    0.1681 H   0  0  0  0  0  0  0  0  0  0  0  0
    4.0816   -4.4083   -0.6370 H   0  0  0  0  0  0  0  0  0  0  0  0
    5.1038   -0.4116    0.4471 H   0  0  0  0  0  0  0  0  0  0  0  0
   -0.5075   -5.8866   -0.3802 H   0  0  0  0  0  0  0  0  0  0  0  0
   -3.5055   -3.3756    1.2616 H   0  0  0  0  0  0  0  0  0  0  0  0
   -3.3699   -7.9410   -0.3234 H   0  0  0  0  0  0  0  0  0  0  0  0
   -1.8289   -7.5204    0.4132 H   0  0  0  0  0  0  0  0  0  0  0  0
   -2.1817   -7.0364   -1.2513 H   0  0  0  0  0  0  0  0  0  0  0  0
   -4.8025   -4.4832   -0.3736 H   0  0  0  0  0  0  0  0  0  0  0  0
   -5.0797   -6.1607   -0.8352 H   0  0  0  0  0  0  0  0  0  0  0  0
   -3.8918   -5.1886   -1.7050 H   0  0  0  0  0  0  0  0  0  0  0  0
   -3.3515   -0.0995    2.4263 H   0  0  0  0  0  0  0  0  0  0  0  0
   -3.5547   -1.8268    2.7723 H   0  0  0  0  0  0  0  0  0  0  0  0
   -3.8566   -1.1940    1.1227 H   0  0  0  0  0  0  0  0  0  0  0  0
   -3.4007   -0.7171   -2.0881 H   0  0  0  0  0  0  0  0  0  0  0  0
   -2.6236    0.8775   -2.1435 H   0  0  0  0  0  0  0  0  0  0  0  0
   -3.5696    0.3792   -0.7045 H   0  0  0  0  0  0  0  0  0  0  0  0
   -2.2778    2.0221   -0.2418 H   0  0  0  0  0  0  0  0  0  0  0  0
    1.6166    2.8484    1.2266 H   0  0  0  0  0  0  0  0  0  0  0  0
   -1.5232    5.7164   -0.3891 H   0  0  0  0  0  0  0  0  0  0  0  0
   -2.0397    4.1513   -1.0084 H   0  0  0  0  0  0  0  0  0  0  0  0
   -0.3620    4.6557   -1.1874 H   0  0  0  0  0  0  0  0  0  0  0  0
    0.5444    4.4188    2.4453 H   0  0  0  0  0  0  0  0  0  0  0  0
   -0.1072    5.8804    1.7065 H   0  0  0  0  0  0  0  0  0  0  0  0
    1.1120    4.9423    0.8575 H   0  0  0  0  0  0  0  0  0  0  0  0
   -2.4317    5.0550    1.9713 H   0  0  0  0  0  0  0  0  0  0  0  0
   -1.8906    3.5340    2.6876 H   0  0  0  0  0  0  0  0  0  0  0  0
   -2.9488    3.5198    1.2837 H   0  0  0  0  0  0  0  0  0  0  0  0
   -3.8387   -6.1087    1.6415 C   0  0  0  0  0  0  0  0  0  0  0  0
   -4.5561   -6.9275    1.6017 H   0  0  0  0  0  0  0  0  0  0  0  0
   -4.3580   -5.2293    2.0179 H   0  0  0  0  0  0  0  0  0  0  0  0
   -3.0641   -6.3685    2.3619 H   0  0  0  0  0  0  0  0  0  0  0  0
   -1.7769    2.4476    5.0911 C   0  0  0  0  0  0  0  0  0  0  0  0
   -2.0791    1.1197    4.7606 C   0  0  0  0  0  0  0  0  0  0  0  0
   -1.0156    0.1518    4.7988 C   0  0  0  0  0  0  0  0  0  0  0  0
    0.3105    0.6451    4.8451 C   0  0  0  0  0  0  0  0  0  0  0  0
    0.5507    1.9815    5.1103 C   0  0  0  0  0  0  0  0  0  0  0  0
   -0.4825    2.8917    5.2952 C   0  0  0  0  0  0  0  0  0  0  0  0
   -1.2346   -1.2737    4.7595 C   0  0  0  0  0  0  0  0  0  0  0  0
   -0.1577   -2.1160    4.3173 C   0  0  0  0  0  0  0  0  0  0  0  0
    1.1636   -1.6261    4.2501 C   0  0  0  0  0  0  0  0  0  0  0  0
    1.4490   -0.2495    4.6436 C   0  0  0  0  0  0  0  0  0  0  0  0
   -2.4577   -1.9119    5.1802 C   0  0  0  0  0  0  0  0  0  0  0  0
   -2.7480   -3.2253    4.7335 C   0  0  0  0  0  0  0  0  0  0  0  0
   -1.7190   -4.0408    4.0902 C   0  0  0  0  0  0  0  0  0  0  0  0
   -0.3772   -3.4732    3.9970 C   0  0  0  0  0  0  0  0  0  0  0  0
    0.6875   -4.2855    3.6478 C   0  0  0  0  0  0  0  0  0  0  0  0
    1.9927   -3.8154    3.6126 C   0  0  0  0  0  0  0  0  0  0  0  0
    2.2027   -2.4746    3.9088 C   0  0  0  0  0  0  0  0  0  0  0  0
   -3.3611   -1.3264    6.1336 C   0  0  0  0  0  0  0  0  0  0  0  0
   -4.6215   -1.9152    6.2973 C   0  0  0  0  0  0  0  0  0  0  0  0
   -4.9679   -3.1116    5.6954 C   0  0  0  0  0  0  0  0  0  0  0  0
   -3.9930   -3.7811    4.9680 C   0  0  0  0  0  0  0  0  0  0  0  0
   -2.9161   -0.2670    6.9052 O   0  0  0  0  0  0  0  0  0  0  0  0
   -3.3400    0.7165    4.3565 O   0  0  0  0  0  0  0  0  0  0  0  0
    2.5967    0.1386    4.7984 O   0  0  0  0  0  0  0  0  0  0  0  0
   -1.9575   -5.1734    3.6995 O   0  0  0  0  0  0  0  0  0  0  0  0
   -3.8351    0.2128    7.8569 C   0  0  0  0  0  0  0  0  0  0  0  0
   -4.3295    1.7184    4.3743 C   0  0  0  0  0  0  0  0  0  0  0  0
   -6.3726   -3.6936    5.9040 C   0  0  0  0  0  0  0  0  0  0  0  0
   -6.5890   -4.9676    5.0640 C   0  0  0  0  0  0  0  0  0  0  0  0
   -7.4237   -2.6519    5.4773 C   0  0  0  0  0  0  0  0  0  0  0  0
   -0.2214    4.3105    5.8264 C   0  0  0  0  0  0  0  0  0  0  0  0
   -0.5597    4.3308    7.3271 C   0  0  0  0  0  0  0  0  0  0  0  0
    1.2541    4.7171    5.6427 C   0  0  0  0  0  0  0  0  0  0  0  0
   -1.0984    5.3449    5.0957 C   0  0  0  0  0  0  0  0  0  0  0  0
    3.1632   -4.7941    3.4377 C   0  0  0  0  0  0  0  0  0  0  0  0
    4.4567   -4.0484    3.0613 C   0  0  0  0  0  0  0  0  0  0  0  0
    2.8580   -5.8260    2.3350 C   0  0  0  0  0  0  0  0  0  0  0  0
    3.3833   -5.5303    4.7701 C   0  0  0  0  0  0  0  0  0  0  0  0
    2.6346   -5.3346    1.3920 H   0  0  0  0  0  0  0  0  0  0  0  0
    2.0083   -6.4545    2.5941 H   0  0  0  0  0  0  0  0  0  0  0  0
    3.7113   -6.4830    2.1717 H   0  0  0  0  0  0  0  0  0  0  0  0
    5.2553   -4.7506    2.8246 H   0  0  0  0  0  0  0  0  0  0  0  0
    4.8064   -3.4208    3.8798 H   0  0  0  0  0  0  0  0  0  0  0  0
    4.2948   -3.4147    2.1922 H   0  0  0  0  0  0  0  0  0  0  0  0
    4.2148   -6.2304    4.6979 H   0  0  0  0  0  0  0  0  0  0  0  0
    2.4933   -6.0897    5.0560 H   0  0  0  0  0  0  0  0  0  0  0  0
    3.6034   -4.8231    5.5691 H   0  0  0  0  0  0  0  0  0  0  0  0
    0.4767   -5.3194    3.4466 H   0  0  0  0  0  0  0  0  0  0  0  0
    3.1944   -2.0616    3.9125 H   0  0  0  0  0  0  0  0  0  0  0  0
   -4.1764   -4.7669    4.5837 H   0  0  0  0  0  0  0  0  0  0  0  0
   -5.3393   -1.4394    6.9368 H   0  0  0  0  0  0  0  0  0  0  0  0
   -7.6053   -5.3416    5.1838 H   0  0  0  0  0  0  0  0  0  0  0  0
   -5.9102   -5.7623    5.3709 H   0  0  0  0  0  0  0  0  0  0  0  0
   -6.4317   -4.7682    4.0044 H   0  0  0  0  0  0  0  0  0  0  0  0
   -7.3571   -1.7484    6.0814 H   0  0  0  0  0  0  0  0  0  0  0  0
   -8.4323   -3.0493    5.5850 H   0  0  0  0  0  0  0  0  0  0  0  0
   -7.2819   -2.3685    4.4349 H   0  0  0  0  0  0  0  0  0  0  0  0
   -3.3697    1.0351    8.4013 H   0  0  0  0  0  0  0  0  0  0  0  0
   -4.0885   -0.5796    8.5622 H   0  0  0  0  0  0  0  0  0  0  0  0
   -4.7305    0.5839    7.3574 H   0  0  0  0  0  0  0  0  0  0  0  0
   -5.2749    1.2778    4.0562 H   0  0  0  0  0  0  0  0  0  0  0  0
   -4.0646    2.5199    3.6841 H   0  0  0  0  0  0  0  0  0  0  0  0
   -4.4477    2.1065    5.3862 H   0  0  0  0  0  0  0  0  0  0  0  0
   -2.5815    3.1475    5.2016 H   0  0  0  0  0  0  0  0  0  0  0  0
    1.5769    2.2881    5.1951 H   0  0  0  0  0  0  0  0  0  0  0  0
   -0.8771    6.3532    5.4442 H   0  0  0  0  0  0  0  0  0  0  0  0
   -2.1588    5.1687    5.2669 H   0  0  0  0  0  0  0  0  0  0  0  0
   -0.9182    5.3184    4.0236 H   0  0  0  0  0  0  0  0  0  0  0  0
    1.9145    4.0912    6.2411 H   0  0  0  0  0  0  0  0  0  0  0  0
    1.4131    5.7482    5.9565 H   0  0  0  0  0  0  0  0  0  0  0  0
    1.5563    4.6358    4.5997 H   0  0  0  0  0  0  0  0  0  0  0  0
   -0.3859    5.3174    7.7551 H   0  0  0  0  0  0  0  0  0  0  0  0
    0.0541    3.6125    7.8695 H   0  0  0  0  0  0  0  0  0  0  0  0
   -1.6039    4.0686    7.4933 H   0  0  0  0  0  0  0  0  0  0  0  0
   -6.5604   -4.0450    7.3898 C   0  0  0  0  0  0  0  0  0  0  0  0
   -7.5453   -4.4756    7.5674 H   0  0  0  0  0  0  0  0  0  0  0  0
   -6.4629   -3.1618    8.0195 H   0  0  0  0  0  0  0  0  0  0  0  0
   -5.8121   -4.7687    7.7110 H   0  0  0  0  0  0  0  0  0  0  0  0
  1  2  2  0  0  0  0
  1 64  1  0  0  0  0
  2  3  1  0  0  0  0
  2 23  1  0  0  0  0
  3  4  2  0  0  0  0
  3  7  1  0  0  0  0
  4  5  1  0  0  0  0
  5  6  2  0  0  0  0
  5 65  1  0  0  0  0
  6 31  1  0  0  0  0
  6  1  1  0  0  0  0
  7  8  1  0  0  0  0
  8  9  2  0  0  0  0
  9 10  1  0  0  0  0
 10  4  1  0  0  0  0
 10 24  2  0  0  0  0
 11 12  2  0  0  0  0
 11 18  1  0  0  0  0
 11  7  1  0  0  0  0
 12 13  1  0  0  0  0
 13 14  1  0  0  0  0
 13 25  2  0  0  0  0
 14  8  1  0  0  0  0
 14 15  2  0  0  0  0
 15 16  1  0  0  0  0
 15 48  1  0  0  0  0
 16 35  1  0  0  0  0
 16 17  2  0  0  0  0
 17  9  1  0  0  0  0
 17 49  1  0  0  0  0
 18 19  2  0  0  0  0
 19 20  1  0  0  0  0
 19 51  1  0  0  0  0
 20 28  1  0  0  0  0
 20 21  2  0  0  0  0
 21 12  1  0  0  0  0
 21 50  1  0  0  0  0
 22 26  1  0  0  0  0
 22 18  1  0  0  0  0
 23 27  1  0  0  0  0
 26 58  1  0  0  0  0
 26 59  1  0  0  0  0
 26 60  1  0  0  0  0
 27 61  1  0  0  0  0
 27 62  1  0  0  0  0
 27 63  1  0  0  0  0
 28 29  1  0  0  0  0
 28 30  1  0  0  0  0
 28 75  1  0  0  0  0
 29 52  1  0  0  0  0
 29 53  1  0  0  0  0
 29 54  1  0  0  0  0
 30 55  1  0  0  0  0
 30 56  1  0  0  0  0
 30 57  1  0  0  0  0
 31 32  1  0  0  0  0
 31 33  1  0  0  0  0
 31 34  1  0  0  0  0
 32 72  1  0  0  0  0
 32 73  1  0  0  0  0
 32 74  1  0  0  0  0
 33 69  1  0  0  0  0
 33 70  1  0  0  0  0
 33 71  1  0  0  0  0
 34 66  1  0  0  0  0
 34 67  1  0  0  0  0
 34 68  1  0  0  0  0
 35 36  1  0  0  0  0
 35 37  1  0  0  0  0
 35 38  1  0  0  0  0
 36 42  1  0  0  0  0
 36 43  1  0  0  0  0
 36 44  1  0  0  0  0
 37 39  1  0  0  0  0
 37 40  1  0  0  0  0
 37 41  1  0  0  0  0
 38 45  1  0  0  0  0
 38 46  1  0  0  0  0
 38 47  1  0  0  0  0
 75 76  1  0  0  0  0
 75 77  1  0  0  0  0
 75 78  1  0  0  0  0
 79 80  2  0  0  0  0
 79142  1  0  0  0  0
 80 81  1  0  0  0  0
 80101  1  0  0  0  0
 81 82  2  0  0  0  0
 81 85  1  0  0  0  0
 82 83  1  0  0  0  0
 83 84  2  0  0  0  0
 83143  1  0  0  0  0
 84109  1  0  0  0  0
 84 79  1  0  0  0  0
 85 86  1  0  0  0  0
 86 87  2  0  0  0  0
 87 88  1  0  0  0  0
 88 82  1  0  0  0  0
 88102  2  0  0  0  0
 89 90  2  0  0  0  0
 89 96  1  0  0  0  0
 89 85  1  0  0  0  0
 90 91  1  0  0  0  0
 91 92  1  0  0  0  0
 91103  2  0  0  0  0
 92 86  1  0  0  0  0
 92 93  2  0  0  0  0
 93 94  1  0  0  0  0
 93126  1  0  0  0  0
 94113  1  0  0  0  0
 94 95  2  0  0  0  0
 95 87  1  0  0  0  0
 95127  1  0  0  0  0
 96 97  2  0  0  0  0
 97 98  1  0  0  0  0
 97129  1  0  0  0  0
 98106  1  0  0  0  0
 98 99  2  0  0  0  0
 99 90  1  0  0  0  0
 99128  1  0  0  0  0
100104  1  0  0  0  0
100 96  1  0  0  0  0
101105  1  0  0  0  0
104136  1  0  0  0  0
104137  1  0  0  0  0
104138  1  0  0  0  0
105139  1  0  0  0  0
105140  1  0  0  0  0
105141  1  0  0  0  0
106107  1  0  0  0  0
106108  1  0  0  0  0
106153  1  0  0  0  0
107130  1  0  0  0  0
107131  1  0  0  0  0
107132  1  0  0  0  0
108133  1  0  0  0  0
108134  1  0  0  0  0
108135  1  0  0  0  0
109110  1  0  0  0  0
109111  1  0  0  0  0
109112  1  0  0  0  0
110150  1  0  0  0  0
110151  1  0  0  0  0
110152  1  0  0  0  0
111147  1  0  0  0  0
111148  1  0  0  0  0
111149  1  0  0  0  0
112144  1  0  0  0  0
112145  1  0  0  0  0
112146  1  0  0  0  0
113114  1  0  0  0  0
113115  1  0  0  0  0
113116  1  0  0  0  0
114120  1  0  0  0  0
114121  1  0  0  0  0
114122  1  0  0  0  0
115117  1  0  0  0  0
115118  1  0  0  0  0
115119  1  0  0  0  0
116123  1  0  0  0  0
116124  1  0  0  0  0
116125  1  0  0  0  0
153154  1  0  0  0  0
153155  1  0  0  0  0
153156  1  0  0  0  0
M  END
