 energy: -130.505739307453 gnorm: 0.000173895094 xtb: 6.7.1 (edcfbbe)
          03032514253D

 78 82  0     0  0            999 V2000
    0.7305    3.2273   -3.2187 C   0  0  0  0  0  0  0  0  0  0  0  0
    2.7169   -3.1381   -0.2264 C   0  0  0  0  0  0  0  0  0  0  0  0
   -3.4549    0.4641   -2.3766 C   0  0  0  0  0  0  0  0  0  0  0  0
   -2.4205   -0.1749   -1.7183 C   0  0  0  0  0  0  0  0  0  0  0  0
   -1.1080    0.3640   -1.7631 C   0  0  0  0  0  0  0  0  0  0  0  0
   -0.8382    1.4274   -2.6563 C   0  0  0  0  0  0  0  0  0  0  0  0
   -1.8769    2.0284   -3.3434 C   0  0  0  0  0  0  0  0  0  0  0  0
   -3.1813    1.5838   -3.1481 C   0  0  0  0  0  0  0  0  0  0  0  0
   -0.0335   -0.1795   -0.9978 C   0  0  0  0  0  0  0  0  0  0  0  0
    1.2816   -0.0085   -1.5212 C   0  0  0  0  0  0  0  0  0  0  0  0
    1.5383    1.0227   -2.4473 C   0  0  0  0  0  0  0  0  0  0  0  0
    0.4824    1.8713   -2.7932 N   0  0  0  0  0  0  0  0  0  0  0  0
   -0.1545   -0.8600    0.2437 C   0  0  0  0  0  0  0  0  0  0  0  0
    0.8774   -1.7555    0.6308 C   0  0  0  0  0  0  0  0  0  0  0  0
    1.9958   -1.8886   -0.1993 N   0  0  0  0  0  0  0  0  0  0  0  0
    2.3164   -0.8666   -1.0981 C   0  0  0  0  0  0  0  0  0  0  0  0
    3.6031   -0.6580   -1.5653 C   0  0  0  0  0  0  0  0  0  0  0  0
    3.8279    0.3192   -2.5296 C   0  0  0  0  0  0  0  0  0  0  0  0
    2.8102    1.1489   -2.9809 C   0  0  0  0  0  0  0  0  0  0  0  0
   -1.2153   -0.6339    1.1564 C   0  0  0  0  0  0  0  0  0  0  0  0
   -1.3443   -1.4082    2.2950 C   0  0  0  0  0  0  0  0  0  0  0  0
   -0.3929   -2.3652    2.5827 C   0  0  0  0  0  0  0  0  0  0  0  0
    0.7546   -2.4931    1.7902 C   0  0  0  0  0  0  0  0  0  0  0  0
   -2.1612    0.3704    0.9529 O   0  0  0  0  0  0  0  0  0  0  0  0
   -2.5654   -1.3677   -1.0534 O   0  0  0  0  0  0  0  0  0  0  0  0
   -4.5597    2.4205   -3.9153 S   0  0  0  0  0  0  0  0  0  0  0  0
   -0.5519   -3.4692    3.9753 S   0  0  0  0  0  0  0  0  0  0  0  0
    5.5019    0.5021   -3.1293 S   0  0  0  0  0  0  0  0  0  0  0  0
    5.4716    1.6525   -4.0270 O   0  0  0  0  0  0  0  0  0  0  0  0
    5.5571   -0.8961   -4.1138 O   0  0  0  0  0  0  0  0  0  0  0  0
    4.6830   -0.8800   -5.2048 C   0  0  0  0  0  0  0  0  0  0  0  0
   -3.9664    3.4474   -4.7670 O   0  0  0  0  0  0  0  0  0  0  0  0
   -5.1583    3.2221   -2.5268 O   0  0  0  0  0  0  0  0  0  0  0  0
   -4.2783    4.1470   -1.9593 C   0  0  0  0  0  0  0  0  0  0  0  0
   -1.7748   -3.0677    4.6620 O   0  0  0  0  0  0  0  0  0  0  0  0
   -0.9138   -4.8926    3.0946 O   0  0  0  0  0  0  0  0  0  0  0  0
   -2.0916   -4.8317    2.3435 C   0  0  0  0  0  0  0  0  0  0  0  0
   -4.4755    0.1213   -2.3037 H   0  0  0  0  0  0  0  0  0  0  0  0
   -1.7331    2.8611   -4.0119 H   0  0  0  0  0  0  0  0  0  0  0  0
   -2.1867   -1.2710    2.9565 H   0  0  0  0  0  0  0  0  0  0  0  0
    1.4982   -3.2124    2.0946 H   0  0  0  0  0  0  0  0  0  0  0  0
    4.4420   -1.2507   -1.2325 H   0  0  0  0  0  0  0  0  0  0  0  0
    3.0605    1.8796   -3.7343 H   0  0  0  0  0  0  0  0  0  0  0  0
    1.8151   -4.3052   -0.6507 C   0  0  0  0  0  0  0  0  0  0  0  0
    2.5986   -5.6083   -0.7308 C   0  0  0  0  0  0  0  0  0  0  0  0
    0.1811    4.2413   -2.2054 C   0  0  0  0  0  0  0  0  0  0  0  0
    0.4029    5.6716   -2.6779 C   0  0  0  0  0  0  0  0  0  0  0  0
   -1.6419    1.6716    1.0653 C   0  0  0  0  0  0  0  0  0  0  0  0
   -3.8501   -1.7323   -0.6336 C   0  0  0  0  0  0  0  0  0  0  0  0
   -4.8649    4.8367   -1.3512 H   0  0  0  0  0  0  0  0  0  0  0  0
   -3.7632    4.7086   -2.7477 H   0  0  0  0  0  0  0  0  0  0  0  0
   -3.5334    3.6446   -1.3309 H   0  0  0  0  0  0  0  0  0  0  0  0
   -2.3972   -5.8552    2.1223 H   0  0  0  0  0  0  0  0  0  0  0  0
   -1.9330   -4.2825    1.4082 H   0  0  0  0  0  0  0  0  0  0  0  0
   -2.8800   -4.3343    2.9202 H   0  0  0  0  0  0  0  0  0  0  0  0
    5.0508   -1.6001   -5.9365 H   0  0  0  0  0  0  0  0  0  0  0  0
    4.6651    0.1186   -5.6564 H   0  0  0  0  0  0  0  0  0  0  0  0
    3.6666   -1.1512   -4.8974 H   0  0  0  0  0  0  0  0  0  0  0  0
    3.1704   -3.3523    0.7500 H   0  0  0  0  0  0  0  0  0  0  0  0
    3.5246   -3.0524   -0.9536 H   0  0  0  0  0  0  0  0  0  0  0  0
    1.3809   -4.0692   -1.6246 H   0  0  0  0  0  0  0  0  0  0  0  0
    0.9951   -4.4118    0.0600 H   0  0  0  0  0  0  0  0  0  0  0  0
    3.4107   -5.5252   -1.4512 H   0  0  0  0  0  0  0  0  0  0  0  0
    1.9496   -6.4258   -1.0368 H   0  0  0  0  0  0  0  0  0  0  0  0
    3.0253   -5.8557    0.2394 H   0  0  0  0  0  0  0  0  0  0  0  0
   -2.4564    2.3509    0.8129 H   0  0  0  0  0  0  0  0  0  0  0  0
   -0.8059    1.8410    0.3793 H   0  0  0  0  0  0  0  0  0  0  0  0
   -1.3045    1.8732    2.0911 H   0  0  0  0  0  0  0  0  0  0  0  0
   -3.7173   -2.5920    0.0236 H   0  0  0  0  0  0  0  0  0  0  0  0
   -4.4901   -2.0220   -1.4778 H   0  0  0  0  0  0  0  0  0  0  0  0
   -4.3275   -0.9229   -0.0733 H   0  0  0  0  0  0  0  0  0  0  0  0
    0.0260    6.3802   -1.9436 H   0  0  0  0  0  0  0  0  0  0  0  0
   -0.1163    5.8441   -3.6184 H   0  0  0  0  0  0  0  0  0  0  0  0
    1.4630    5.8646   -2.8311 H   0  0  0  0  0  0  0  0  0  0  0  0
    0.6808    4.0820   -1.2470 H   0  0  0  0  0  0  0  0  0  0  0  0
   -0.8852    4.0650   -2.0573 H   0  0  0  0  0  0  0  0  0  0  0  0
    0.2915    3.4136   -4.2062 H   0  0  0  0  0  0  0  0  0  0  0  0
    1.8063    3.3768   -3.3019 H   0  0  0  0  0  0  0  0  0  0  0  0
  1 46  1  0  0  0  0
  1 77  1  0  0  0  0
  1 78  1  0  0  0  0
  2 44  1  0  0  0  0
  2 59  1  0  0  0  0
  2 60  1  0  0  0  0
  3  4  2  0  0  0  0
  3 38  1  0  0  0  0
  4  5  1  0  0  0  0
  4 25  1  0  0  0  0
  5  6  2  0  0  0  0
  6  7  1  0  0  0  0
  7  8  2  0  0  0  0
  7 39  1  0  0  0  0
  8  3  1  0  0  0  0
  8 26  1  0  0  0  0
  9  5  1  0  0  0  0
  9 10  1  0  0  0  0
 10 11  2  0  0  0  0
 11 12  1  0  0  0  0
 12  1  1  0  0  0  0
 12  6  1  0  0  0  0
 13 14  2  0  0  0  0
 13 20  1  0  0  0  0
 13  9  1  0  0  0  0
 14 15  1  0  0  0  0
 15  2  1  0  0  0  0
 15 16  1  0  0  0  0
 16 10  1  0  0  0  0
 16 17  2  0  0  0  0
 17 18  1  0  0  0  0
 17 42  1  0  0  0  0
 18 19  2  0  0  0  0
 18 28  1  0  0  0  0
 19 11  1  0  0  0  0
 19 43  1  0  0  0  0
 20 21  2  0  0  0  0
 21 22  1  0  0  0  0
 21 40  1  0  0  0  0
 22 23  2  0  0  0  0
 22 27  1  0  0  0  0
 23 14  1  0  0  0  0
 23 41  1  0  0  0  0
 24 48  1  0  0  0  0
 24 20  1  0  0  0  0
 25 49  1  0  0  0  0
 26 32  2  0  0  0  0
 26 33  1  0  0  0  0
 27 35  2  0  0  0  0
 27 36  1  0  0  0  0
 28 29  2  0  0  0  0
 28 30  1  0  0  0  0
 30 31  1  0  0  0  0
 31 56  1  0  0  0  0
 31 57  1  0  0  0  0
 31 58  1  0  0  0  0
 33 34  1  0  0  0  0
 34 50  1  0  0  0  0
 34 51  1  0  0  0  0
 34 52  1  0  0  0  0
 36 37  1  0  0  0  0
 37 53  1  0  0  0  0
 37 54  1  0  0  0  0
 37 55  1  0  0  0  0
 44 45  1  0  0  0  0
 44 61  1  0  0  0  0
 44 62  1  0  0  0  0
 45 63  1  0  0  0  0
 45 64  1  0  0  0  0
 45 65  1  0  0  0  0
 46 47  1  0  0  0  0
 46 75  1  0  0  0  0
 46 76  1  0  0  0  0
 47 72  1  0  0  0  0
 47 73  1  0  0  0  0
 47 74  1  0  0  0  0
 48 66  1  0  0  0  0
 48 67  1  0  0  0  0
 48 68  1  0  0  0  0
 49 69  1  0  0  0  0
 49 70  1  0  0  0  0
 49 71  1  0  0  0  0
M  CHG  1   1  -1
M  END
