 energy: -110.756875497061 gnorm: 0.000198438433 xtb: 6.7.1 (edcfbbe)
          03172511173D

 78 82  0     0  0            999 V2000
   -1.3575    2.2451   -0.6288 C   0  0  0  0  0  0  0  0  0  0  0  0
   -1.4450    0.8592   -0.7201 C   0  0  0  0  0  0  0  0  0  0  0  0
   -0.3326    0.0523   -0.3344 C   0  0  0  0  0  0  0  0  0  0  0  0
    0.8674    0.7338   -0.0181 C   0  0  0  0  0  0  0  0  0  0  0  0
    0.9122    2.1083    0.0831 C   0  0  0  0  0  0  0  0  0  0  0  0
   -0.2119    2.8966   -0.1886 C   0  0  0  0  0  0  0  0  0  0  0  0
   -0.3470   -1.3722   -0.3502 C   0  0  0  0  0  0  0  0  0  0  0  0
    0.9056   -2.0398   -0.5694 C   0  0  0  0  0  0  0  0  0  0  0  0
    2.1280   -1.3959   -0.3187 C   0  0  0  0  0  0  0  0  0  0  0  0
    2.1378   -0.0056    0.1845 C   0  0  0  0  0  0  0  0  0  0  0  0
   -1.4984   -2.1905   -0.1659 C   0  0  0  0  0  0  0  0  0  0  0  0
   -1.5107   -3.5063   -0.6888 C   0  0  0  0  0  0  0  0  0  0  0  0
   -0.3040   -4.0887   -1.3260 C   0  0  0  0  0  0  0  0  0  0  0  0
    0.9519   -3.3631   -1.0417 C   0  0  0  0  0  0  0  0  0  0  0  0
    2.1659   -3.9863   -1.2770 C   0  0  0  0  0  0  0  0  0  0  0  0
    3.3850   -3.3616   -0.9991 C   0  0  0  0  0  0  0  0  0  0  0  0
    3.3330   -2.0597   -0.5019 C   0  0  0  0  0  0  0  0  0  0  0  0
   -2.6292   -1.8008    0.6133 C   0  0  0  0  0  0  0  0  0  0  0  0
   -3.7314   -2.6458    0.7019 C   0  0  0  0  0  0  0  0  0  0  0  0
   -3.7796   -3.8840    0.0733 C   0  0  0  0  0  0  0  0  0  0  0  0
   -2.6280   -4.3095   -0.5984 C   0  0  0  0  0  0  0  0  0  0  0  0
   -2.5360   -0.6425    1.2772 O   0  0  0  0  0  0  0  0  0  0  0  0
   -2.5123    0.2206   -1.2142 O   0  0  0  0  0  0  0  0  0  0  0  0
    3.1251    0.5127    0.6580 O   0  0  0  0  0  0  0  0  0  0  0  0
   -0.3360   -5.1170   -1.9658 O   0  0  0  0  0  0  0  0  0  0  0  0
   -3.5390   -0.2648    2.1986 C   0  0  0  0  0  0  0  0  0  0  0  0
   -3.5908    0.9505   -1.7631 C   0  0  0  0  0  0  0  0  0  0  0  0
   -5.0336   -4.7256    0.1568 C   0  0  0  0  0  0  0  0  0  0  0  0
   -4.8979   -6.0546   -0.5892 C   0  0  0  0  0  0  0  0  0  0  0  0
   -6.1977   -3.9360   -0.4629 C   0  0  0  0  0  0  0  0  0  0  0  0
   -0.2042    4.4029   -0.0519 C   0  0  0  0  0  0  0  0  0  0  0  0
   -1.3077    4.8160    0.9351 C   0  0  0  0  0  0  0  0  0  0  0  0
    1.1328    4.9375    0.4655 C   0  0  0  0  0  0  0  0  0  0  0  0
   -0.4781    5.0280   -1.4296 C   0  0  0  0  0  0  0  0  0  0  0  0
    4.6805   -4.1015   -1.2379 C   0  0  0  0  0  0  0  0  0  0  0  0
    5.9108   -3.2648   -0.8824 C   0  0  0  0  0  0  0  0  0  0  0  0
    4.7607   -4.4874   -2.7237 C   0  0  0  0  0  0  0  0  0  0  0  0
    4.6828   -5.3722   -0.3725 C   0  0  0  0  0  0  0  0  0  0  0  0
    4.7338   -3.5973   -3.3484 H   0  0  0  0  0  0  0  0  0  0  0  0
    3.9421   -5.1386   -3.0162 H   0  0  0  0  0  0  0  0  0  0  0  0
    5.6939   -5.0110   -2.9126 H   0  0  0  0  0  0  0  0  0  0  0  0
    6.8081   -3.8473   -1.0749 H   0  0  0  0  0  0  0  0  0  0  0  0
    5.9122   -2.9911    0.1699 H   0  0  0  0  0  0  0  0  0  0  0  0
    5.9636   -2.3634   -1.4882 H   0  0  0  0  0  0  0  0  0  0  0  0
    5.6150   -5.9105   -0.5208 H   0  0  0  0  0  0  0  0  0  0  0  0
    3.8632   -6.0365   -0.6307 H   0  0  0  0  0  0  0  0  0  0  0  0
    4.5995   -5.1134    0.6808 H   0  0  0  0  0  0  0  0  0  0  0  0
    2.1314   -4.9888   -1.6764 H   0  0  0  0  0  0  0  0  0  0  0  0
    4.2306   -1.5170   -0.2508 H   0  0  0  0  0  0  0  0  0  0  0  0
   -2.5730   -5.2805   -1.0632 H   0  0  0  0  0  0  0  0  0  0  0  0
   -4.5849   -2.3203    1.2731 H   0  0  0  0  0  0  0  0  0  0  0  0
   -5.8318   -6.6055   -0.5125 H   0  0  0  0  0  0  0  0  0  0  0  0
   -4.1133   -6.6710   -0.1577 H   0  0  0  0  0  0  0  0  0  0  0  0
   -4.6912   -5.8961   -1.6445 H   0  0  0  0  0  0  0  0  0  0  0  0
   -6.3838   -3.0058    0.0669 H   0  0  0  0  0  0  0  0  0  0  0  0
   -7.1042   -4.5338   -0.4231 H   0  0  0  0  0  0  0  0  0  0  0  0
   -5.9851   -3.7049   -1.5042 H   0  0  0  0  0  0  0  0  0  0  0  0
   -3.1831    0.6594    2.6508 H   0  0  0  0  0  0  0  0  0  0  0  0
   -3.6716   -1.0198    2.9774 H   0  0  0  0  0  0  0  0  0  0  0  0
   -4.4933   -0.0790    1.6980 H   0  0  0  0  0  0  0  0  0  0  0  0
   -4.2777    0.2016   -2.1539 H   0  0  0  0  0  0  0  0  0  0  0  0
   -3.2616    1.5986   -2.5791 H   0  0  0  0  0  0  0  0  0  0  0  0
   -4.1002    1.5464   -1.0007 H   0  0  0  0  0  0  0  0  0  0  0  0
   -2.2174    2.8343   -0.9011 H   0  0  0  0  0  0  0  0  0  0  0  0
    1.8517    2.5484    0.3756 H   0  0  0  0  0  0  0  0  0  0  0  0
   -0.4305    6.1108   -1.3525 H   0  0  0  0  0  0  0  0  0  0  0  0
   -1.4605    4.7599   -1.8081 H   0  0  0  0  0  0  0  0  0  0  0  0
    0.2701    4.7027   -2.1488 H   0  0  0  0  0  0  0  0  0  0  0  0
    1.3730    4.5219    1.4410 H   0  0  0  0  0  0  0  0  0  0  0  0
    1.0707    6.0176    0.5701 H   0  0  0  0  0  0  0  0  0  0  0  0
    1.9409    4.7180   -0.2275 H   0  0  0  0  0  0  0  0  0  0  0  0
   -1.2991    5.8954    1.0587 H   0  0  0  0  0  0  0  0  0  0  0  0
   -1.1355    4.3586    1.9068 H   0  0  0  0  0  0  0  0  0  0  0  0
   -2.2946    4.5255    0.5856 H   0  0  0  0  0  0  0  0  0  0  0  0
   -5.3368   -5.0258    1.6339 C   0  0  0  0  0  0  0  0  0  0  0  0
   -6.2061   -5.6742    1.7009 H   0  0  0  0  0  0  0  0  0  0  0  0
   -5.5482   -4.1210    2.1969 H   0  0  0  0  0  0  0  0  0  0  0  0
   -4.4944   -5.5334    2.0982 H   0  0  0  0  0  0  0  0  0  0  0  0
  1  2  2  0  0  0  0
  1 64  1  0  0  0  0
  2  3  1  0  0  0  0
  2 23  1  0  0  0  0
  3  4  2  0  0  0  0
  3  7  1  0  0  0  0
  4  5  1  0  0  0  0
  5  6  2  0  0  0  0
  5 65  1  0  0  0  0
  6 31  1  0  0  0  0
  6  1  1  0  0  0  0
  7  8  1  0  0  0  0
  8  9  2  0  0  0  0
  9 10  1  0  0  0  0
 10  4  1  0  0  0  0
 10 24  2  0  0  0  0
 11 12  2  0  0  0  0
 11 18  1  0  0  0  0
 11  7  1  0  0  0  0
 12 13  1  0  0  0  0
 13 14  1  0  0  0  0
 13 25  2  0  0  0  0
 14  8  1  0  0  0  0
 14 15  2  0  0  0  0
 15 16  1  0  0  0  0
 15 48  1  0  0  0  0
 16 35  1  0  0  0  0
 16 17  2  0  0  0  0
 17  9  1  0  0  0  0
 17 49  1  0  0  0  0
 18 19  2  0  0  0  0
 19 20  1  0  0  0  0
 19 51  1  0  0  0  0
 20 28  1  0  0  0  0
 20 21  2  0  0  0  0
 21 12  1  0  0  0  0
 21 50  1  0  0  0  0
 22 26  1  0  0  0  0
 22 18  1  0  0  0  0
 23 27  1  0  0  0  0
 26 58  1  0  0  0  0
 26 59  1  0  0  0  0
 26 60  1  0  0  0  0
 27 61  1  0  0  0  0
 27 62  1  0  0  0  0
 27 63  1  0  0  0  0
 28 29  1  0  0  0  0
 28 30  1  0  0  0  0
 28 75  1  0  0  0  0
 29 52  1  0  0  0  0
 29 53  1  0  0  0  0
 29 54  1  0  0  0  0
 30 55  1  0  0  0  0
 30 56  1  0  0  0  0
 30 57  1  0  0  0  0
 31 32  1  0  0  0  0
 31 33  1  0  0  0  0
 31 34  1  0  0  0  0
 32 72  1  0  0  0  0
 32 73  1  0  0  0  0
 32 74  1  0  0  0  0
 33 69  1  0  0  0  0
 33 70  1  0  0  0  0
 33 71  1  0  0  0  0
 34 66  1  0  0  0  0
 34 67  1  0  0  0  0
 34 68  1  0  0  0  0
 35 36  1  0  0  0  0
 35 37  1  0  0  0  0
 35 38  1  0  0  0  0
 36 42  1  0  0  0  0
 36 43  1  0  0  0  0
 36 44  1  0  0  0  0
 37 39  1  0  0  0  0
 37 40  1  0  0  0  0
 37 41  1  0  0  0  0
 38 45  1  0  0  0  0
 38 46  1  0  0  0  0
 38 47  1  0  0  0  0
 75 76  1  0  0  0  0
 75 77  1  0  0  0  0
 75 78  1  0  0  0  0
M  CHG  1   1   1
M  END
