 energy: -28.490152987185 gnorm: 0.000255341161 xtb: 6.7.1 (edcfbbe)
          03172511173D

156164  0     0  0            999 V2000
   -0.4913    1.6857    1.3025 C   0  0  0  0  0  0  0  0  0  0  0  0
   -0.6819    0.3617    0.8868 C   0  0  0  0  0  0  0  0  0  0  0  0
    0.4521   -0.5213    0.9019 C   0  0  0  0  0  0  0  0  0  0  0  0
    1.7359    0.0728    0.9817 C   0  0  0  0  0  0  0  0  0  0  0  0
    1.8670    1.3944    1.3641 C   0  0  0  0  0  0  0  0  0  0  0  0
    0.7604    2.1988    1.5985 C   0  0  0  0  0  0  0  0  0  0  0  0
    0.3473   -1.9521    0.7271 C   0  0  0  0  0  0  0  0  0  0  0  0
    1.4517   -2.6195    0.0936 C   0  0  0  0  0  0  0  0  0  0  0  0
    2.7105   -1.9893   -0.0203 C   0  0  0  0  0  0  0  0  0  0  0  0
    2.9259   -0.6823    0.5960 C   0  0  0  0  0  0  0  0  0  0  0  0
   -0.7515   -2.7539    1.2042 C   0  0  0  0  0  0  0  0  0  0  0  0
   -0.8969   -4.0803    0.7306 C   0  0  0  0  0  0  0  0  0  0  0  0
    0.0889   -4.6768   -0.1720 C   0  0  0  0  0  0  0  0  0  0  0  0
    1.3242   -3.9353   -0.3979 C   0  0  0  0  0  0  0  0  0  0  0  0
    2.3892   -4.5401   -1.0432 C   0  0  0  0  0  0  0  0  0  0  0  0
    3.6142   -3.9062   -1.1941 C   0  0  0  0  0  0  0  0  0  0  0  0
    3.7578   -2.6365   -0.6527 C   0  0  0  0  0  0  0  0  0  0  0  0
   -1.6479   -2.3194    2.2375 C   0  0  0  0  0  0  0  0  0  0  0  0
   -2.6880   -3.1687    2.6325 C   0  0  0  0  0  0  0  0  0  0  0  0
   -2.8513   -4.4401    2.1190 C   0  0  0  0  0  0  0  0  0  0  0  0
   -1.9357   -4.8782    1.1753 C   0  0  0  0  0  0  0  0  0  0  0  0
   -1.4357   -1.1150    2.8900 O   0  0  0  0  0  0  0  0  0  0  0  0
   -1.8832   -0.1210    0.3964 O   0  0  0  0  0  0  0  0  0  0  0  0
    4.0518   -0.2372    0.7628 O   0  0  0  0  0  0  0  0  0  0  0  0
   -0.0870   -5.7797   -0.6686 O   0  0  0  0  0  0  0  0  0  0  0  0
   -2.5893   -0.5519    3.4749 C   0  0  0  0  0  0  0  0  0  0  0  0
   -2.8988    0.8432    0.2500 C   0  0  0  0  0  0  0  0  0  0  0  0
   -3.9153   -5.4069    2.6561 C   0  0  0  0  0  0  0  0  0  0  0  0
   -4.7046   -6.0157    1.4829 C   0  0  0  0  0  0  0  0  0  0  0  0
   -4.9110   -4.6940    3.5913 C   0  0  0  0  0  0  0  0  0  0  0  0
    0.9514    3.6504    2.0547 C   0  0  0  0  0  0  0  0  0  0  0  0
   -0.3186    4.1826    2.7442 C   0  0  0  0  0  0  0  0  0  0  0  0
    2.1172    3.7391    3.0618 C   0  0  0  0  0  0  0  0  0  0  0  0
    1.2653    4.5227    0.8292 C   0  0  0  0  0  0  0  0  0  0  0  0
    4.7593   -4.6246   -1.9200 C   0  0  0  0  0  0  0  0  0  0  0  0
    6.0107   -3.7327   -2.0305 C   0  0  0  0  0  0  0  0  0  0  0  0
    4.3030   -4.9981   -3.3424 C   0  0  0  0  0  0  0  0  0  0  0  0
    5.1322   -5.8983   -1.1416 C   0  0  0  0  0  0  0  0  0  0  0  0
    4.0078   -4.1081   -3.8970 H   0  0  0  0  0  0  0  0  0  0  0  0
    3.4511   -5.6759   -3.3206 H   0  0  0  0  0  0  0  0  0  0  0  0
    5.1047   -5.4888   -3.8932 H   0  0  0  0  0  0  0  0  0  0  0  0
    6.8067   -4.2482   -2.5668 H   0  0  0  0  0  0  0  0  0  0  0  0
    6.3945   -3.4702   -1.0453 H   0  0  0  0  0  0  0  0  0  0  0  0
    5.7893   -2.8135   -2.5718 H   0  0  0  0  0  0  0  0  0  0  0  0
    5.9508   -6.4270   -1.6288 H   0  0  0  0  0  0  0  0  0  0  0  0
    4.2868   -6.5813   -1.0739 H   0  0  0  0  0  0  0  0  0  0  0  0
    5.4454   -5.6516   -0.1277 H   0  0  0  0  0  0  0  0  0  0  0  0
    2.2487   -5.5388   -1.4143 H   0  0  0  0  0  0  0  0  0  0  0  0
    4.6969   -2.1187   -0.7099 H   0  0  0  0  0  0  0  0  0  0  0  0
   -1.9897   -5.8830    0.7975 H   0  0  0  0  0  0  0  0  0  0  0  0
   -3.3360   -2.8414    3.4204 H   0  0  0  0  0  0  0  0  0  0  0  0
   -5.4859   -6.6832    1.8446 H   0  0  0  0  0  0  0  0  0  0  0  0
   -4.0577   -6.5915    0.8231 H   0  0  0  0  0  0  0  0  0  0  0  0
   -5.1765   -5.2329    0.8902 H   0  0  0  0  0  0  0  0  0  0  0  0
   -4.4095   -4.3044    4.4757 H   0  0  0  0  0  0  0  0  0  0  0  0
   -5.6842   -5.3827    3.9302 H   0  0  0  0  0  0  0  0  0  0  0  0
   -5.4027   -3.8667    3.0808 H   0  0  0  0  0  0  0  0  0  0  0  0
   -2.3858    0.4958    3.6968 H   0  0  0  0  0  0  0  0  0  0  0  0
   -2.8332   -1.0673    4.4034 H   0  0  0  0  0  0  0  0  0  0  0  0
   -3.4261   -0.6116    2.7784 H   0  0  0  0  0  0  0  0  0  0  0  0
   -3.7698    0.3618   -0.1959 H   0  0  0  0  0  0  0  0  0  0  0  0
   -2.5597    1.6421   -0.4106 H   0  0  0  0  0  0  0  0  0  0  0  0
   -3.1796    1.2463    1.2232 H   0  0  0  0  0  0  0  0  0  0  0  0
   -1.3454    2.3288    1.3758 H   0  0  0  0  0  0  0  0  0  0  0  0
    2.8612    1.7915    1.4553 H   0  0  0  0  0  0  0  0  0  0  0  0
    1.4125    5.5629    1.1175 H   0  0  0  0  0  0  0  0  0  0  0  0
    0.4501    4.4824    0.1076 H   0  0  0  0  0  0  0  0  0  0  0  0
    2.1703    4.1784    0.3300 H   0  0  0  0  0  0  0  0  0  0  0  0
    1.9891    3.0147    3.8642 H   0  0  0  0  0  0  0  0  0  0  0  0
    2.1768    4.7322    3.5054 H   0  0  0  0  0  0  0  0  0  0  0  0
    3.0749    3.5394    2.5847 H   0  0  0  0  0  0  0  0  0  0  0  0
   -0.1439    5.1762    3.1547 H   0  0  0  0  0  0  0  0  0  0  0  0
   -0.6202    3.5245    3.5581 H   0  0  0  0  0  0  0  0  0  0  0  0
   -1.1491    4.2655    2.0450 H   0  0  0  0  0  0  0  0  0  0  0  0
   -3.2091   -6.5233    3.4458 C   0  0  0  0  0  0  0  0  0  0  0  0
   -3.9302   -7.2120    3.8844 H   0  0  0  0  0  0  0  0  0  0  0  0
   -2.6081   -6.0997    4.2495 H   0  0  0  0  0  0  0  0  0  0  0  0
   -2.5423   -7.0966    2.8034 H   0  0  0  0  0  0  0  0  0  0  0  0
   -2.3949    2.7015    6.4207 C   0  0  0  0  0  0  0  0  0  0  0  0
   -2.4224    1.3143    6.2349 C   0  0  0  0  0  0  0  0  0  0  0  0
   -1.1678    0.6175    6.1480 C   0  0  0  0  0  0  0  0  0  0  0  0
   -0.0059    1.3898    5.9085 C   0  0  0  0  0  0  0  0  0  0  0  0
   -0.0440    2.7644    6.0723 C   0  0  0  0  0  0  0  0  0  0  0  0
   -1.2224    3.4340    6.3788 C   0  0  0  0  0  0  0  0  0  0  0  0
   -1.0682   -0.8198    6.1878 C   0  0  0  0  0  0  0  0  0  0  0  0
    0.0441   -1.4386    5.5258 C   0  0  0  0  0  0  0  0  0  0  0  0
    1.1740   -0.6813    5.1468 C   0  0  0  0  0  0  0  0  0  0  0  0
    1.2244    0.7519    5.4363 C   0  0  0  0  0  0  0  0  0  0  0  0
   -2.0348   -1.6689    6.8373 C   0  0  0  0  0  0  0  0  0  0  0  0
   -2.1360   -3.0283    6.4562 C   0  0  0  0  0  0  0  0  0  0  0  0
   -1.1261   -3.6365    5.5902 C   0  0  0  0  0  0  0  0  0  0  0  0
    0.0332   -2.8197    5.2347 C   0  0  0  0  0  0  0  0  0  0  0  0
    1.1254   -3.4014    4.6172 C   0  0  0  0  0  0  0  0  0  0  0  0
    2.2531   -2.6698    4.2712 C   0  0  0  0  0  0  0  0  0  0  0  0
    2.2491   -1.3060    4.5373 C   0  0  0  0  0  0  0  0  0  0  0  0
   -2.8530   -1.2212    7.9300 C   0  0  0  0  0  0  0  0  0  0  0  0
   -3.9019   -2.0466    8.3528 C   0  0  0  0  0  0  0  0  0  0  0  0
   -4.0903   -3.3240    7.8573 C   0  0  0  0  0  0  0  0  0  0  0  0
   -3.1635   -3.8144    6.9470 C   0  0  0  0  0  0  0  0  0  0  0  0
   -2.5221   -0.0356    8.5623 O   0  0  0  0  0  0  0  0  0  0  0  0
   -3.5913    0.5962    6.0464 O   0  0  0  0  0  0  0  0  0  0  0  0
    2.2432    1.4016    5.2569 O   0  0  0  0  0  0  0  0  0  0  0  0
   -1.2296   -4.7947    5.2153 O   0  0  0  0  0  0  0  0  0  0  0  0
   -3.3632    0.3350    9.6280 C   0  0  0  0  0  0  0  0  0  0  0  0
   -4.7769    1.3513    6.1135 C   0  0  0  0  0  0  0  0  0  0  0  0
   -5.2743   -4.1647    8.3557 C   0  0  0  0  0  0  0  0  0  0  0  0
   -5.3163   -5.5482    7.6787 C   0  0  0  0  0  0  0  0  0  0  0  0
   -6.5867   -3.4270    8.0332 C   0  0  0  0  0  0  0  0  0  0  0  0
   -1.2605    4.9430    6.6608 C   0  0  0  0  0  0  0  0  0  0  0  0
   -1.7145    5.1640    8.1148 C   0  0  0  0  0  0  0  0  0  0  0  0
    0.1253    5.5912    6.4787 C   0  0  0  0  0  0  0  0  0  0  0  0
   -2.2513    5.6299    5.7023 C   0  0  0  0  0  0  0  0  0  0  0  0
    3.4927   -3.3955    3.7278 C   0  0  0  0  0  0  0  0  0  0  0  0
    4.5260   -2.4040    3.1581 C   0  0  0  0  0  0  0  0  0  0  0  0
    3.0853   -4.3733    2.6105 C   0  0  0  0  0  0  0  0  0  0  0  0
    4.1449   -4.1822    4.8776 C   0  0  0  0  0  0  0  0  0  0  0  0
    2.5268   -3.8526    1.8382 H   0  0  0  0  0  0  0  0  0  0  0  0
    2.4586   -5.1797    2.9871 H   0  0  0  0  0  0  0  0  0  0  0  0
    3.9608   -4.8261    2.1467 H   0  0  0  0  0  0  0  0  0  0  0  0
    5.3643   -2.9334    2.7071 H   0  0  0  0  0  0  0  0  0  0  0  0
    4.9286   -1.7601    3.9387 H   0  0  0  0  0  0  0  0  0  0  0  0
    4.0844   -1.7717    2.3910 H   0  0  0  0  0  0  0  0  0  0  0  0
    5.0315   -4.7138    4.5339 H   0  0  0  0  0  0  0  0  0  0  0  0
    3.4521   -4.9141    5.2911 H   0  0  0  0  0  0  0  0  0  0  0  0
    4.4418   -3.5118    5.6832 H   0  0  0  0  0  0  0  0  0  0  0  0
    1.0863   -4.4591    4.4321 H   0  0  0  0  0  0  0  0  0  0  0  0
    3.0940   -0.6941    4.2806 H   0  0  0  0  0  0  0  0  0  0  0  0
   -3.2118   -4.8334    6.6116 H   0  0  0  0  0  0  0  0  0  0  0  0
   -4.5742   -1.6880    9.1076 H   0  0  0  0  0  0  0  0  0  0  0  0
   -6.1731   -6.1233    8.0283 H   0  0  0  0  0  0  0  0  0  0  0  0
   -4.4198   -6.1241    7.9051 H   0  0  0  0  0  0  0  0  0  0  0  0
   -5.4026   -5.4530    6.5972 H   0  0  0  0  0  0  0  0  0  0  0  0
   -6.6302   -2.4595    8.5311 H   0  0  0  0  0  0  0  0  0  0  0  0
   -7.4503   -4.0072    8.3565 H   0  0  0  0  0  0  0  0  0  0  0  0
   -6.6770   -3.2552    6.9611 H   0  0  0  0  0  0  0  0  0  0  0  0
   -3.0080    1.2830   10.0333 H   0  0  0  0  0  0  0  0  0  0  0  0
   -3.3256   -0.4212   10.4130 H   0  0  0  0  0  0  0  0  0  0  0  0
   -4.3840    0.4669    9.2679 H   0  0  0  0  0  0  0  0  0  0  0  0
   -5.6225    0.6831    5.9476 H   0  0  0  0  0  0  0  0  0  0  0  0
   -4.7756    2.1186    5.3383 H   0  0  0  0  0  0  0  0  0  0  0  0
   -4.8744    1.8027    7.1013 H   0  0  0  0  0  0  0  0  0  0  0  0
   -3.3170    3.2213    6.5938 H   0  0  0  0  0  0  0  0  0  0  0  0
    0.8764    3.3046    5.9541 H   0  0  0  0  0  0  0  0  0  0  0  0
   -2.2595    6.7080    5.8593 H   0  0  0  0  0  0  0  0  0  0  0  0
   -3.2670    5.2673    5.8516 H   0  0  0  0  0  0  0  0  0  0  0  0
   -1.9805    5.4439    4.6646 H   0  0  0  0  0  0  0  0  0  0  0  0
    0.8535    5.1587    7.1638 H   0  0  0  0  0  0  0  0  0  0  0  0
    0.0809    6.6612    6.6786 H   0  0  0  0  0  0  0  0  0  0  0  0
    0.4901    5.4612    5.4612 H   0  0  0  0  0  0  0  0  0  0  0  0
   -1.7434    6.2256    8.3581 H   0  0  0  0  0  0  0  0  0  0  0  0
   -1.0310    4.6760    8.8087 H   0  0  0  0  0  0  0  0  0  0  0  0
   -2.7093    4.7541    8.2832 H   0  0  0  0  0  0  0  0  0  0  0  0
   -5.1517   -4.3694    9.8763 C   0  0  0  0  0  0  0  0  0  0  0  0
   -5.9694   -4.9824   10.2540 H   0  0  0  0  0  0  0  0  0  0  0  0
   -5.1754   -3.4194   10.4078 H   0  0  0  0  0  0  0  0  0  0  0  0
   -4.2146   -4.8672   10.1225 H   0  0  0  0  0  0  0  0  0  0  0  0
  1  2  2  0  0  0  0
  1 64  1  0  0  0  0
  2  3  1  0  0  0  0
  2 23  1  0  0  0  0
  3  4  2  0  0  0  0
  3  7  1  0  0  0  0
  4  5  1  0  0  0  0
  5  6  2  0  0  0  0
  5 65  1  0  0  0  0
  6 31  1  0  0  0  0
  6  1  1  0  0  0  0
  7  8  1  0  0  0  0
  8  9  2  0  0  0  0
  9 10  1  0  0  0  0
 10  4  1  0  0  0  0
 10 24  2  0  0  0  0
 11 12  2  0  0  0  0
 11 18  1  0  0  0  0
 11  7  1  0  0  0  0
 12 13  1  0  0  0  0
 13 14  1  0  0  0  0
 13 25  2  0  0  0  0
 14  8  1  0  0  0  0
 14 15  2  0  0  0  0
 15 16  1  0  0  0  0
 15 48  1  0  0  0  0
 16 35  1  0  0  0  0
 16 17  2  0  0  0  0
 17  9  1  0  0  0  0
 17 49  1  0  0  0  0
 18 19  2  0  0  0  0
 19 20  1  0  0  0  0
 19 51  1  0  0  0  0
 20 28  1  0  0  0  0
 20 21  2  0  0  0  0
 21 12  1  0  0  0  0
 21 50  1  0  0  0  0
 22 26  1  0  0  0  0
 22 18  1  0  0  0  0
 23 27  1  0  0  0  0
 26 58  1  0  0  0  0
 26 59  1  0  0  0  0
 26 60  1  0  0  0  0
 27 61  1  0  0  0  0
 27 62  1  0  0  0  0
 27 63  1  0  0  0  0
 28 29  1  0  0  0  0
 28 30  1  0  0  0  0
 28 75  1  0  0  0  0
 29 52  1  0  0  0  0
 29 53  1  0  0  0  0
 29 54  1  0  0  0  0
 30 55  1  0  0  0  0
 30 56  1  0  0  0  0
 30 57  1  0  0  0  0
 31 32  1  0  0  0  0
 31 33  1  0  0  0  0
 31 34  1  0  0  0  0
 32 72  1  0  0  0  0
 32 73  1  0  0  0  0
 32 74  1  0  0  0  0
 33 69  1  0  0  0  0
 33 70  1  0  0  0  0
 33 71  1  0  0  0  0
 34 66  1  0  0  0  0
 34 67  1  0  0  0  0
 34 68  1  0  0  0  0
 35 36  1  0  0  0  0
 35 37  1  0  0  0  0
 35 38  1  0  0  0  0
 36 42  1  0  0  0  0
 36 43  1  0  0  0  0
 36 44  1  0  0  0  0
 37 39  1  0  0  0  0
 37 40  1  0  0  0  0
 37 41  1  0  0  0  0
 38 45  1  0  0  0  0
 38 46  1  0  0  0  0
 38 47  1  0  0  0  0
 75 76  1  0  0  0  0
 75 77  1  0  0  0  0
 75 78  1  0  0  0  0
 79 80  2  0  0  0  0
 79142  1  0  0  0  0
 80 81  1  0  0  0  0
 80101  1  0  0  0  0
 81 82  2  0  0  0  0
 81 85  1  0  0  0  0
 82 83  1  0  0  0  0
 83 84  2  0  0  0  0
 83143  1  0  0  0  0
 84109  1  0  0  0  0
 84 79  1  0  0  0  0
 85 86  1  0  0  0  0
 86 87  2  0  0  0  0
 87 88  1  0  0  0  0
 88 82  1  0  0  0  0
 88102  2  0  0  0  0
 89 90  2  0  0  0  0
 89 96  1  0  0  0  0
 89 85  1  0  0  0  0
 90 91  1  0  0  0  0
 91 92  1  0  0  0  0
 91103  2  0  0  0  0
 92 86  1  0  0  0  0
 92 93  2  0  0  0  0
 93 94  1  0  0  0  0
 93126  1  0  0  0  0
 94113  1  0  0  0  0
 94 95  2  0  0  0  0
 95 87  1  0  0  0  0
 95127  1  0  0  0  0
 96 97  2  0  0  0  0
 97 98  1  0  0  0  0
 97129  1  0  0  0  0
 98106  1  0  0  0  0
 98 99  2  0  0  0  0
 99 90  1  0  0  0  0
 99128  1  0  0  0  0
100104  1  0  0  0  0
100 96  1  0  0  0  0
101105  1  0  0  0  0
104136  1  0  0  0  0
104137  1  0  0  0  0
104138  1  0  0  0  0
105139  1  0  0  0  0
105140  1  0  0  0  0
105141  1  0  0  0  0
106107  1  0  0  0  0
106108  1  0  0  0  0
106153  1  0  0  0  0
107130  1  0  0  0  0
107131  1  0  0  0  0
107132  1  0  0  0  0
108133  1  0  0  0  0
108134  1  0  0  0  0
108135  1  0  0  0  0
109110  1  0  0  0  0
109111  1  0  0  0  0
109112  1  0  0  0  0
110150  1  0  0  0  0
110151  1  0  0  0  0
110152  1  0  0  0  0
111147  1  0  0  0  0
111148  1  0  0  0  0
111149  1  0  0  0  0
112144  1  0  0  0  0
112145  1  0  0  0  0
112146  1  0  0  0  0
113114  1  0  0  0  0
113115  1  0  0  0  0
113116  1  0  0  0  0
114120  1  0  0  0  0
114121  1  0  0  0  0
114122  1  0  0  0  0
115117  1  0  0  0  0
115118  1  0  0  0  0
115119  1  0  0  0  0
116123  1  0  0  0  0
116124  1  0  0  0  0
116125  1  0  0  0  0
153154  1  0  0  0  0
153155  1  0  0  0  0
153156  1  0  0  0  0
M  END
