energy: -111.158736644833 gnorm: 0.000100039391 xtb: 6.7.1 (edcfbbe)_energy: -111.158736644833 gnorm: 0.000100039391 xtb: 6.7.1 (edcfbbe)
 OpenBabel03172511173D

156164  0  0  0  0  0  0  0  0999 V2000
   -1.3629    2.2109   -0.6067 C   0  0  0  0  0  0  0  0  0  0  0  0
   -1.4174    0.8354   -0.7351 C   0  0  0  0  0  0  0  0  0  0  0  0
   -0.3002    0.0415   -0.3618 C   0  0  0  0  0  0  0  0  0  0  0  0
    0.8940    0.7257   -0.0606 C   0  0  0  0  0  0  0  0  0  0  0  0
    0.9164    2.1115    0.0635 C   0  0  0  0  0  0  0  0  0  0  0  0
   -0.2160    2.8736   -0.1611 C   0  0  0  0  0  0  0  0  0  0  0  0
   -0.3143   -1.3881   -0.3706 C   0  0  0  0  0  0  0  0  0  0  0  0
    0.9265   -2.0514   -0.5855 C   0  0  0  0  0  0  0  0  0  0  0  0
    2.1524   -1.3900   -0.3806 C   0  0  0  0  0  0  0  0  0  0  0  0
    2.1709    0.0058    0.0799 C   0  0  0  0  0  0  0  0  0  0  0  0
   -1.4706   -2.2065   -0.1753 C   0  0  0  0  0  0  0  0  0  0  0  0
   -1.4849   -3.5255   -0.6707 C   0  0  0  0  0  0  0  0  0  0  0  0
   -0.2768   -4.1354   -1.2510 C   0  0  0  0  0  0  0  0  0  0  0  0
    0.9697   -3.3944   -1.0109 C   0  0  0  0  0  0  0  0  0  0  0  0
    2.1877   -4.0173   -1.2379 C   0  0  0  0  0  0  0  0  0  0  0  0
    3.4036   -3.3745   -1.0157 C   0  0  0  0  0  0  0  0  0  0  0  0
    3.3564   -2.0580   -0.5740 C   0  0  0  0  0  0  0  0  0  0  0  0
   -2.5960   -1.7971    0.5892 C   0  0  0  0  0  0  0  0  0  0  0  0
   -3.7125   -2.6088    0.6679 C   0  0  0  0  0  0  0  0  0  0  0  0
   -3.7690   -3.8628    0.0538 C   0  0  0  0  0  0  0  0  0  0  0  0
   -2.6254   -4.3173   -0.5780 C   0  0  0  0  0  0  0  0  0  0  0  0
   -2.4701   -0.6300    1.2732 O   0  0  0  0  0  0  0  0  0  0  0  0
   -2.4741    0.1742   -1.2755 O   0  0  0  0  0  0  0  0  0  0  0  0
    3.1897    0.5496    0.4852 O   0  0  0  0  0  0  0  0  0  0  0  0
   -0.2974   -5.2146   -1.8278 O   0  0  0  0  0  0  0  0  0  0  0  0
   -3.5196   -0.1955    2.0985 C   0  0  0  0  0  0  0  0  0  0  0  0
   -3.5845    0.9026   -1.7313 C   0  0  0  0  0  0  0  0  0  0  0  0
   -5.0477   -4.6772    0.1439 C   0  0  0  0  0  0  0  0  0  0  0  0
   -4.9398   -6.0101   -0.6007 C   0  0  0  0  0  0  0  0  0  0  0  0
   -6.1972   -3.8714   -0.4785 C   0  0  0  0  0  0  0  0  0  0  0  0
   -0.2506    4.3817    0.0152 C   0  0  0  0  0  0  0  0  0  0  0  0
   -1.3491    4.7387    1.0272 C   0  0  0  0  0  0  0  0  0  0  0  0
    1.0778    4.9348    0.5367 C   0  0  0  0  0  0  0  0  0  0  0  0
   -0.5514    5.0449   -1.3367 C   0  0  0  0  0  0  0  0  0  0  0  0
    4.7021   -4.1223   -1.2597 C   0  0  0  0  0  0  0  0  0  0  0  0
    5.9356   -3.2673   -0.9594 C   0  0  0  0  0  0  0  0  0  0  0  0
    4.7561   -4.5530   -2.7325 C   0  0  0  0  0  0  0  0  0  0  0  0
    4.7386   -5.3616   -0.3542 C   0  0  0  0  0  0  0  0  0  0  0  0
    4.7083   -3.6809   -3.3814 H   0  0  0  0  0  0  0  0  0  0  0  0
    3.9289   -5.2108   -2.9836 H   0  0  0  0  0  0  0  0  0  0  0  0
    5.6857   -5.0813   -2.9326 H   0  0  0  0  0  0  0  0  0  0  0  0
    6.8349   -3.8504   -1.1471 H   0  0  0  0  0  0  0  0  0  0  0  0
    5.9499   -2.9527    0.0814 H   0  0  0  0  0  0  0  0  0  0  0  0
    5.9665   -2.3871   -1.5971 H   0  0  0  0  0  0  0  0  0  0  0  0
    5.6659   -5.9090   -0.5086 H   0  0  0  0  0  0  0  0  0  0  0  0
    3.9089   -6.0306   -0.5643 H   0  0  0  0  0  0  0  0  0  0  0  0
    4.6828   -5.0652    0.6912 H   0  0  0  0  0  0  0  0  0  0  0  0
    2.1501   -5.0370   -1.5915 H   0  0  0  0  0  0  0  0  0  0  0  0
    4.2534   -1.4959   -0.3679 H   0  0  0  0  0  0  0  0  0  0  0  0
   -2.5627   -5.3006   -1.0141 H   0  0  0  0  0  0  0  0  0  0  0  0
   -4.5669   -2.2694    1.2307 H   0  0  0  0  0  0  0  0  0  0  0  0
   -5.8870   -6.5415   -0.5337 H   0  0  0  0  0  0  0  0  0  0  0  0
   -4.1694   -6.6403   -0.1640 H   0  0  0  0  0  0  0  0  0  0  0  0
   -4.7142   -5.8517   -1.6522 H   0  0  0  0  0  0  0  0  0  0  0  0
   -6.3627   -2.9365    0.0503 H   0  0  0  0  0  0  0  0  0  0  0  0
   -7.1189   -4.4481   -0.4435 H   0  0  0  0  0  0  0  0  0  0  0  0
   -5.9729   -3.6417   -1.5179 H   0  0  0  0  0  0  0  0  0  0  0  0
   -3.1765    0.7416    2.5356 H   0  0  0  0  0  0  0  0  0  0  0  0
   -3.7277   -0.9117    2.9003 H   0  0  0  0  0  0  0  0  0  0  0  0
   -4.4369   -0.0128    1.5281 H   0  0  0  0  0  0  0  0  0  0  0  0
   -4.2752    0.1607   -2.1303 H   0  0  0  0  0  0  0  0  0  0  0  0
   -3.3101    1.6035   -2.5269 H   0  0  0  0  0  0  0  0  0  0  0  0
   -4.0736    1.4503   -0.9183 H   0  0  0  0  0  0  0  0  0  0  0  0
   -2.2308    2.7954   -0.8660 H   0  0  0  0  0  0  0  0  0  0  0  0
    1.8613    2.5530    0.3344 H   0  0  0  0  0  0  0  0  0  0  0  0
   -0.5412    6.1275   -1.2308 H   0  0  0  0  0  0  0  0  0  0  0  0
   -1.5256    4.7514   -1.7185 H   0  0  0  0  0  0  0  0  0  0  0  0
    0.2021    4.7625   -2.0687 H   0  0  0  0  0  0  0  0  0  0  0  0
    1.3385    4.4857    1.4917 H   0  0  0  0  0  0  0  0  0  0  0  0
    0.9926    6.0101    0.6800 H   0  0  0  0  0  0  0  0  0  0  0  0
    1.8820    4.7530   -0.1716 H   0  0  0  0  0  0  0  0  0  0  0  0
   -1.3744    5.8145    1.1865 H   0  0  0  0  0  0  0  0  0  0  0  0
   -1.1512    4.2532    1.9804 H   0  0  0  0  0  0  0  0  0  0  0  0
   -2.3300    4.4247    0.6806 H   0  0  0  0  0  0  0  0  0  0  0  0
   -5.3570   -4.9733    1.6186 C   0  0  0  0  0  0  0  0  0  0  0  0
   -6.2502   -5.5895    1.6954 H   0  0  0  0  0  0  0  0  0  0  0  0
   -5.5263   -4.0604    2.1834 H   0  0  0  0  0  0  0  0  0  0  0  0
   -4.5277   -5.5091    2.0753 H   0  0  0  0  0  0  0  0  0  0  0  0
   -1.3629    2.2109    7.3933 C   0  0  0  0  0  0  0  0  0  0  0  0
   -1.4174    0.8354    7.2649 C   0  0  0  0  0  0  0  0  0  0  0  0
   -0.3002    0.0415    7.6382 C   0  0  0  0  0  0  0  0  0  0  0  0
    0.8940    0.7257    7.9394 C   0  0  0  0  0  0  0  0  0  0  0  0
    0.9164    2.1115    8.0635 C   0  0  0  0  0  0  0  0  0  0  0  0
   -0.2160    2.8736    7.8389 C   0  0  0  0  0  0  0  0  0  0  0  0
   -0.3143   -1.3881    7.6294 C   0  0  0  0  0  0  0  0  0  0  0  0
    0.9265   -2.0514    7.4145 C   0  0  0  0  0  0  0  0  0  0  0  0
    2.1524   -1.3900    7.6194 C   0  0  0  0  0  0  0  0  0  0  0  0
    2.1709    0.0058    8.0799 C   0  0  0  0  0  0  0  0  0  0  0  0
   -1.4706   -2.2065    7.8247 C   0  0  0  0  0  0  0  0  0  0  0  0
   -1.4849   -3.5255    7.3293 C   0  0  0  0  0  0  0  0  0  0  0  0
   -0.2768   -4.1354    6.7490 C   0  0  0  0  0  0  0  0  0  0  0  0
    0.9697   -3.3944    6.9891 C   0  0  0  0  0  0  0  0  0  0  0  0
    2.1877   -4.0173    6.7621 C   0  0  0  0  0  0  0  0  0  0  0  0
    3.4036   -3.3745    6.9843 C   0  0  0  0  0  0  0  0  0  0  0  0
    3.3564   -2.0580    7.4260 C   0  0  0  0  0  0  0  0  0  0  0  0
   -2.5960   -1.7971    8.5892 C   0  0  0  0  0  0  0  0  0  0  0  0
   -3.7125   -2.6088    8.6679 C   0  0  0  0  0  0  0  0  0  0  0  0
   -3.7690   -3.8628    8.0538 C   0  0  0  0  0  0  0  0  0  0  0  0
   -2.6254   -4.3173    7.4220 C   0  0  0  0  0  0  0  0  0  0  0  0
   -2.4701   -0.6300    9.2732 O   0  0  0  0  0  0  0  0  0  0  0  0
   -2.4741    0.1742    6.7245 O   0  0  0  0  0  0  0  0  0  0  0  0
    3.1897    0.5496    8.4852 O   0  0  0  0  0  0  0  0  0  0  0  0
   -0.2974   -5.2146    6.1722 O   0  0  0  0  0  0  0  0  0  0  0  0
   -3.5196   -0.1955   10.0985 C   0  0  0  0  0  0  0  0  0  0  0  0
   -3.5845    0.9026    6.2687 C   0  0  0  0  0  0  0  0  0  0  0  0
   -5.0477   -4.6772    8.1439 C   0  0  0  0  0  0  0  0  0  0  0  0
   -4.9398   -6.0101    7.3993 C   0  0  0  0  0  0  0  0  0  0  0  0
   -6.1972   -3.8714    7.5215 C   0  0  0  0  0  0  0  0  0  0  0  0
   -0.2506    4.3817    8.0152 C   0  0  0  0  0  0  0  0  0  0  0  0
   -1.3491    4.7387    9.0272 C   0  0  0  0  0  0  0  0  0  0  0  0
    1.0778    4.9348    8.5367 C   0  0  0  0  0  0  0  0  0  0  0  0
   -0.5514    5.0449    6.6633 C   0  0  0  0  0  0  0  0  0  0  0  0
    4.7021   -4.1223    6.7403 C   0  0  0  0  0  0  0  0  0  0  0  0
    5.9356   -3.2673    7.0406 C   0  0  0  0  0  0  0  0  0  0  0  0
    4.7561   -4.5530    5.2675 C   0  0  0  0  0  0  0  0  0  0  0  0
    4.7386   -5.3616    7.6458 C   0  0  0  0  0  0  0  0  0  0  0  0
    4.7083   -3.6809    4.6186 H   0  0  0  0  0  0  0  0  0  0  0  0
    3.9289   -5.2108    5.0164 H   0  0  0  0  0  0  0  0  0  0  0  0
    5.6857   -5.0813    5.0674 H   0  0  0  0  0  0  0  0  0  0  0  0
    6.8349   -3.8504    6.8529 H   0  0  0  0  0  0  0  0  0  0  0  0
    5.9499   -2.9527    8.0814 H   0  0  0  0  0  0  0  0  0  0  0  0
    5.9665   -2.3871    6.4029 H   0  0  0  0  0  0  0  0  0  0  0  0
    5.6659   -5.9090    7.4914 H   0  0  0  0  0  0  0  0  0  0  0  0
    3.9089   -6.0306    7.4357 H   0  0  0  0  0  0  0  0  0  0  0  0
    4.6828   -5.0652    8.6912 H   0  0  0  0  0  0  0  0  0  0  0  0
    2.1501   -5.0370    6.4085 H   0  0  0  0  0  0  0  0  0  0  0  0
    4.2534   -1.4959    7.6321 H   0  0  0  0  0  0  0  0  0  0  0  0
   -2.5627   -5.3006    6.9859 H   0  0  0  0  0  0  0  0  0  0  0  0
   -4.5669   -2.2694    9.2307 H   0  0  0  0  0  0  0  0  0  0  0  0
   -5.8870   -6.5415    7.4663 H   0  0  0  0  0  0  0  0  0  0  0  0
   -4.1694   -6.6403    7.8360 H   0  0  0  0  0  0  0  0  0  0  0  0
   -4.7142   -5.8517    6.3478 H   0  0  0  0  0  0  0  0  0  0  0  0
   -6.3627   -2.9365    8.0503 H   0  0  0  0  0  0  0  0  0  0  0  0
   -7.1189   -4.4481    7.5565 H   0  0  0  0  0  0  0  0  0  0  0  0
   -5.9729   -3.6417    6.4821 H   0  0  0  0  0  0  0  0  0  0  0  0
   -3.1765    0.7416   10.5356 H   0  0  0  0  0  0  0  0  0  0  0  0
   -3.7277   -0.9117   10.9003 H   0  0  0  0  0  0  0  0  0  0  0  0
   -4.4369   -0.0128    9.5281 H   0  0  0  0  0  0  0  0  0  0  0  0
   -4.2752    0.1607    5.8697 H   0  0  0  0  0  0  0  0  0  0  0  0
   -3.3101    1.6035    5.4731 H   0  0  0  0  0  0  0  0  0  0  0  0
   -4.0736    1.4503    7.0817 H   0  0  0  0  0  0  0  0  0  0  0  0
   -2.2308    2.7954    7.1340 H   0  0  0  0  0  0  0  0  0  0  0  0
    1.8613    2.5530    8.3344 H   0  0  0  0  0  0  0  0  0  0  0  0
   -0.5412    6.1275    6.7692 H   0  0  0  0  0  0  0  0  0  0  0  0
   -1.5256    4.7514    6.2815 H   0  0  0  0  0  0  0  0  0  0  0  0
    0.2021    4.7625    5.9313 H   0  0  0  0  0  0  0  0  0  0  0  0
    1.3385    4.4857    9.4917 H   0  0  0  0  0  0  0  0  0  0  0  0
    0.9926    6.0101    8.6800 H   0  0  0  0  0  0  0  0  0  0  0  0
    1.8820    4.7530    7.8284 H   0  0  0  0  0  0  0  0  0  0  0  0
   -1.3744    5.8145    9.1865 H   0  0  0  0  0  0  0  0  0  0  0  0
   -1.1512    4.2532    9.9804 H   0  0  0  0  0  0  0  0  0  0  0  0
   -2.3300    4.4247    8.6806 H   0  0  0  0  0  0  0  0  0  0  0  0
   -5.3570   -4.9733    9.6186 C   0  0  0  0  0  0  0  0  0  0  0  0
   -6.2502   -5.5895    9.6954 H   0  0  0  0  0  0  0  0  0  0  0  0
   -5.5263   -4.0604   10.1834 H   0  0  0  0  0  0  0  0  0  0  0  0
   -4.5277   -5.5091   10.0753 H   0  0  0  0  0  0  0  0  0  0  0  0
  1  2  2  0  0  0  0
  1 64  1  0  0  0  0
  2  3  1  0  0  0  0
  2 23  1  0  0  0  0
  3  4  2  0  0  0  0
  3  7  1  0  0  0  0
  4  5  1  0  0  0  0
  5  6  2  0  0  0  0
  5 65  1  0  0  0  0
  6 31  1  0  0  0  0
  6  1  1  0  0  0  0
  7  8  1  0  0  0  0
  8  9  2  0  0  0  0
  9 10  1  0  0  0  0
 10  4  1  0  0  0  0
 10 24  2  0  0  0  0
 11 12  2  0  0  0  0
 11 18  1  0  0  0  0
 11  7  1  0  0  0  0
 12 13  1  0  0  0  0
 13 14  1  0  0  0  0
 13 25  2  0  0  0  0
 14  8  1  0  0  0  0
 14 15  2  0  0  0  0
 15 16  1  0  0  0  0
 15 48  1  0  0  0  0
 16 35  1  0  0  0  0
 16 17  2  0  0  0  0
 17  9  1  0  0  0  0
 17 49  1  0  0  0  0
 18 19  2  0  0  0  0
 19 20  1  0  0  0  0
 19 51  1  0  0  0  0
 20 28  1  0  0  0  0
 20 21  2  0  0  0  0
 21 12  1  0  0  0  0
 21 50  1  0  0  0  0
 22 26  1  0  0  0  0
 22 18  1  0  0  0  0
 23 27  1  0  0  0  0
 26 58  1  0  0  0  0
 26 59  1  0  0  0  0
 26 60  1  0  0  0  0
 27 61  1  0  0  0  0
 27 62  1  0  0  0  0
 27 63  1  0  0  0  0
 28 29  1  0  0  0  0
 28 30  1  0  0  0  0
 28 75  1  0  0  0  0
 29 52  1  0  0  0  0
 29 53  1  0  0  0  0
 29 54  1  0  0  0  0
 30 55  1  0  0  0  0
 30 56  1  0  0  0  0
 30 57  1  0  0  0  0
 31 32  1  0  0  0  0
 31 33  1  0  0  0  0
 31 34  1  0  0  0  0
 32 72  1  0  0  0  0
 32 73  1  0  0  0  0
 32 74  1  0  0  0  0
 33 69  1  0  0  0  0
 33 70  1  0  0  0  0
 33 71  1  0  0  0  0
 34 66  1  0  0  0  0
 34 67  1  0  0  0  0
 34 68  1  0  0  0  0
 35 36  1  0  0  0  0
 35 37  1  0  0  0  0
 35 38  1  0  0  0  0
 36 42  1  0  0  0  0
 36 43  1  0  0  0  0
 36 44  1  0  0  0  0
 37 39  1  0  0  0  0
 37 40  1  0  0  0  0
 37 41  1  0  0  0  0
 38 45  1  0  0  0  0
 38 46  1  0  0  0  0
 38 47  1  0  0  0  0
 75 76  1  0  0  0  0
 75 77  1  0  0  0  0
 75 78  1  0  0  0  0
 79 80  2  0  0  0  0
 79142  1  0  0  0  0
 80 81  1  0  0  0  0
 80101  1  0  0  0  0
 81 82  2  0  0  0  0
 81 85  1  0  0  0  0
 82 83  1  0  0  0  0
 83 84  2  0  0  0  0
 83143  1  0  0  0  0
 84109  1  0  0  0  0
 84 79  1  0  0  0  0
 85 86  1  0  0  0  0
 86 87  2  0  0  0  0
 87 88  1  0  0  0  0
 88 82  1  0  0  0  0
 88102  2  0  0  0  0
 89 90  2  0  0  0  0
 89 96  1  0  0  0  0
 89 85  1  0  0  0  0
 90 91  1  0  0  0  0
 91 92  1  0  0  0  0
 91103  2  0  0  0  0
 92 86  1  0  0  0  0
 92 93  2  0  0  0  0
 93 94  1  0  0  0  0
 93126  1  0  0  0  0
 94113  1  0  0  0  0
 94 95  2  0  0  0  0
 95 87  1  0  0  0  0
 95127  1  0  0  0  0
 96 97  2  0  0  0  0
 97 98  1  0  0  0  0
 97129  1  0  0  0  0
 98106  1  0  0  0  0
 98 99  2  0  0  0  0
 99 90  1  0  0  0  0
 99128  1  0  0  0  0
100104  1  0  0  0  0
100 96  1  0  0  0  0
101105  1  0  0  0  0
104136  1  0  0  0  0
104137  1  0  0  0  0
104138  1  0  0  0  0
105139  1  0  0  0  0
105140  1  0  0  0  0
105141  1  0  0  0  0
106107  1  0  0  0  0
106108  1  0  0  0  0
106153  1  0  0  0  0
107130  1  0  0  0  0
107131  1  0  0  0  0
107132  1  0  0  0  0
108133  1  0  0  0  0
108134  1  0  0  0  0
108135  1  0  0  0  0
109110  1  0  0  0  0
109111  1  0  0  0  0
109112  1  0  0  0  0
110150  1  0  0  0  0
110151  1  0  0  0  0
110152  1  0  0  0  0
111147  1  0  0  0  0
111148  1  0  0  0  0
111149  1  0  0  0  0
112144  1  0  0  0  0
112145  1  0  0  0  0
112146  1  0  0  0  0
113114  1  0  0  0  0
113115  1  0  0  0  0
113116  1  0  0  0  0
114120  1  0  0  0  0
114121  1  0  0  0  0
114122  1  0  0  0  0
115117  1  0  0  0  0
115118  1  0  0  0  0
115119  1  0  0  0  0
116123  1  0  0  0  0
116124  1  0  0  0  0
116125  1  0  0  0  0
153154  1  0  0  0  0
153155  1  0  0  0  0
153156  1  0  0  0  0
M  END
