 energy: -127.008976229258 gnorm: 0.000159457856 xtb: 6.7.1 (edcfbbe)
          03032513383D

 78 82  0     0  0            999 V2000
    0.9638    3.3617   -3.2918 C   0  0  0  0  0  0  0  0  0  0  0  0
    2.5459   -3.1346   -0.4070 C   0  0  0  0  0  0  0  0  0  0  0  0
   -3.5541    1.5181   -1.8372 C   0  0  0  0  0  0  0  0  0  0  0  0
   -2.6044    0.6190   -1.3973 C   0  0  0  0  0  0  0  0  0  0  0  0
   -1.2234    0.8822   -1.6037 C   0  0  0  0  0  0  0  0  0  0  0  0
   -0.8551    1.9539   -2.4498 C   0  0  0  0  0  0  0  0  0  0  0  0
   -1.8260    2.8494   -2.8822 C   0  0  0  0  0  0  0  0  0  0  0  0
   -3.1607    2.6564   -2.5437 C   0  0  0  0  0  0  0  0  0  0  0  0
   -0.1879    0.0538   -1.0688 C   0  0  0  0  0  0  0  0  0  0  0  0
    1.0104   -0.0322   -1.8204 C   0  0  0  0  0  0  0  0  0  0  0  0
    1.3052    0.9771   -2.7696 C   0  0  0  0  0  0  0  0  0  0  0  0
    0.4675    2.0782   -2.8389 N   0  0  0  0  0  0  0  0  0  0  0  0
   -0.2889   -0.7421    0.1065 C   0  0  0  0  0  0  0  0  0  0  0  0
    0.5536   -1.8740    0.2416 C   0  0  0  0  0  0  0  0  0  0  0  0
    1.6173   -2.0451   -0.6326 N   0  0  0  0  0  0  0  0  0  0  0  0
    1.8929   -1.1248   -1.6313 C   0  0  0  0  0  0  0  0  0  0  0  0
    2.9856   -1.2486   -2.4801 C   0  0  0  0  0  0  0  0  0  0  0  0
    3.2370   -0.2817   -3.4522 C   0  0  0  0  0  0  0  0  0  0  0  0
    2.4149    0.8337   -3.5863 C   0  0  0  0  0  0  0  0  0  0  0  0
   -1.1694   -0.4102    1.1728 C   0  0  0  0  0  0  0  0  0  0  0  0
   -1.3863   -1.3110    2.1918 C   0  0  0  0  0  0  0  0  0  0  0  0
   -0.7129   -2.5349    2.1908 C   0  0  0  0  0  0  0  0  0  0  0  0
    0.2752   -2.7965    1.2455 C   0  0  0  0  0  0  0  0  0  0  0  0
   -1.7024    0.8411    1.1356 O   0  0  0  0  0  0  0  0  0  0  0  0
   -2.9068   -0.5743   -0.8164 O   0  0  0  0  0  0  0  0  0  0  0  0
   -4.1375    3.6566   -3.0032 C   0  0  0  0  0  0  0  0  0  0  0  0
   -1.0512   -3.5018    3.2449 C   0  0  0  0  0  0  0  0  0  0  0  0
    4.3808   -0.4004   -4.3722 C   0  0  0  0  0  0  0  0  0  0  0  0
    4.6758    0.4206   -5.2105 O   0  0  0  0  0  0  0  0  0  0  0  0
    5.0879   -1.5353   -4.1894 O   0  0  0  0  0  0  0  0  0  0  0  0
    6.2015   -1.7053   -5.0498 C   0  0  0  0  0  0  0  0  0  0  0  0
   -3.8575    4.6550   -3.6272 O   0  0  0  0  0  0  0  0  0  0  0  0
   -5.4051    3.3525   -2.6546 O   0  0  0  0  0  0  0  0  0  0  0  0
   -6.3921    4.2797   -3.0725 C   0  0  0  0  0  0  0  0  0  0  0  0
   -1.9006   -3.3235    4.0893 O   0  0  0  0  0  0  0  0  0  0  0  0
   -0.3058   -4.6265    3.1740 O   0  0  0  0  0  0  0  0  0  0  0  0
   -0.5545   -5.6349    4.1397 C   0  0  0  0  0  0  0  0  0  0  0  0
   -4.6043    1.3625   -1.6602 H   0  0  0  0  0  0  0  0  0  0  0  0
   -1.5934    3.7016   -3.4969 H   0  0  0  0  0  0  0  0  0  0  0  0
   -2.0747   -1.1203    2.9981 H   0  0  0  0  0  0  0  0  0  0  0  0
    0.7837   -3.7403    1.3181 H   0  0  0  0  0  0  0  0  0  0  0  0
    3.6595   -2.0845   -2.4398 H   0  0  0  0  0  0  0  0  0  0  0  0
    2.6595    1.5373   -4.3646 H   0  0  0  0  0  0  0  0  0  0  0  0
    2.1836   -4.3792   -1.2214 C   0  0  0  0  0  0  0  0  0  0  0  0
    3.1731   -5.5091   -0.9704 C   0  0  0  0  0  0  0  0  0  0  0  0
    0.9146    4.4019   -2.1668 C   0  0  0  0  0  0  0  0  0  0  0  0
    1.4377    5.7481   -2.6497 C   0  0  0  0  0  0  0  0  0  0  0  0
   -2.5708    1.2281    2.1713 C   0  0  0  0  0  0  0  0  0  0  0  0
   -4.2576   -0.9038   -0.6127 C   0  0  0  0  0  0  0  0  0  0  0  0
   -7.3457    3.8868   -2.7285 H   0  0  0  0  0  0  0  0  0  0  0  0
   -6.3870    4.3765   -4.1606 H   0  0  0  0  0  0  0  0  0  0  0  0
   -6.2015    5.2622   -2.6347 H   0  0  0  0  0  0  0  0  0  0  0  0
    0.3911   -5.8844    4.6216 H   0  0  0  0  0  0  0  0  0  0  0  0
   -0.9562   -6.5147    3.6342 H   0  0  0  0  0  0  0  0  0  0  0  0
   -1.2715   -5.2717    4.8789 H   0  0  0  0  0  0  0  0  0  0  0  0
    6.6452   -2.6631   -4.7894 H   0  0  0  0  0  0  0  0  0  0  0  0
    6.9214   -0.8968   -4.9047 H   0  0  0  0  0  0  0  0  0  0  0  0
    5.8799   -1.7021   -6.0935 H   0  0  0  0  0  0  0  0  0  0  0  0
    2.5608   -3.3733    0.6576 H   0  0  0  0  0  0  0  0  0  0  0  0
    3.5537   -2.8014   -0.6611 H   0  0  0  0  0  0  0  0  0  0  0  0
    2.1758   -4.1213   -2.2821 H   0  0  0  0  0  0  0  0  0  0  0  0
    1.1760   -4.7010   -0.9514 H   0  0  0  0  0  0  0  0  0  0  0  0
    4.1793   -5.2066   -1.2522 H   0  0  0  0  0  0  0  0  0  0  0  0
    2.9038   -6.3865   -1.5525 H   0  0  0  0  0  0  0  0  0  0  0  0
    3.1806   -5.7849    0.0819 H   0  0  0  0  0  0  0  0  0  0  0  0
   -2.8875    2.2405    1.9234 H   0  0  0  0  0  0  0  0  0  0  0  0
   -2.0623    1.2327    3.1410 H   0  0  0  0  0  0  0  0  0  0  0  0
   -3.4478    0.5763    2.2300 H   0  0  0  0  0  0  0  0  0  0  0  0
   -4.2485   -1.8770   -0.1232 H   0  0  0  0  0  0  0  0  0  0  0  0
   -4.8008   -0.9780   -1.5607 H   0  0  0  0  0  0  0  0  0  0  0  0
   -4.7606   -0.1781    0.0343 H   0  0  0  0  0  0  0  0  0  0  0  0
    1.4140    6.4753   -1.8425 H   0  0  0  0  0  0  0  0  0  0  0  0
    0.8249    6.1234   -3.4660 H   0  0  0  0  0  0  0  0  0  0  0  0
    2.4630    5.6589   -3.0021 H   0  0  0  0  0  0  0  0  0  0  0  0
    1.5225    4.0436   -1.3330 H   0  0  0  0  0  0  0  0  0  0  0  0
   -0.1095    4.5127   -1.8087 H   0  0  0  0  0  0  0  0  0  0  0  0
    0.3924    3.7113   -4.1569 H   0  0  0  0  0  0  0  0  0  0  0  0
    2.0007    3.2455   -3.6012 H   0  0  0  0  0  0  0  0  0  0  0  0
  1 46  1  0  0  0  0
  1 77  1  0  0  0  0
  1 78  1  0  0  0  0
  2 44  1  0  0  0  0
  2 59  1  0  0  0  0
  2 60  1  0  0  0  0
  3  4  2  0  0  0  0
  3 38  1  0  0  0  0
  4  5  1  0  0  0  0
  4 25  1  0  0  0  0
  5  6  2  0  0  0  0
  5  9  1  0  0  0  0
  6  7  1  0  0  0  0
  7  8  2  0  0  0  0
  7 39  1  0  0  0  0
  8  3  1  0  0  0  0
  8 26  1  0  0  0  0
  9 10  1  0  0  0  0
 10 11  2  0  0  0  0
 11 12  1  0  0  0  0
 12  1  1  0  0  0  0
 12  6  1  0  0  0  0
 13 14  2  0  0  0  0
 13 20  1  0  0  0  0
 13  9  1  0  0  0  0
 14 15  1  0  0  0  0
 15  2  1  0  0  0  0
 15 16  1  0  0  0  0
 16 10  1  0  0  0  0
 16 17  2  0  0  0  0
 17 18  1  0  0  0  0
 17 42  1  0  0  0  0
 18 19  2  0  0  0  0
 18 28  1  0  0  0  0
 19 11  1  0  0  0  0
 19 43  1  0  0  0  0
 20 21  2  0  0  0  0
 21 22  1  0  0  0  0
 21 40  1  0  0  0  0
 22 23  2  0  0  0  0
 22 27  1  0  0  0  0
 23 14  1  0  0  0  0
 23 41  1  0  0  0  0
 24 48  1  0  0  0  0
 24 20  1  0  0  0  0
 25 49  1  0  0  0  0
 26 32  2  0  0  0  0
 26 33  1  0  0  0  0
 27 35  2  0  0  0  0
 27 36  1  0  0  0  0
 28 29  2  0  0  0  0
 28 30  1  0  0  0  0
 30 31  1  0  0  0  0
 31 56  1  0  0  0  0
 31 57  1  0  0  0  0
 31 58  1  0  0  0  0
 33 34  1  0  0  0  0
 34 50  1  0  0  0  0
 34 51  1  0  0  0  0
 34 52  1  0  0  0  0
 36 37  1  0  0  0  0
 37 53  1  0  0  0  0
 37 54  1  0  0  0  0
 37 55  1  0  0  0  0
 44 45  1  0  0  0  0
 44 61  1  0  0  0  0
 44 62  1  0  0  0  0
 45 63  1  0  0  0  0
 45 64  1  0  0  0  0
 45 65  1  0  0  0  0
 46 47  1  0  0  0  0
 46 75  1  0  0  0  0
 46 76  1  0  0  0  0
 47 72  1  0  0  0  0
 47 73  1  0  0  0  0
 47 74  1  0  0  0  0
 48 66  1  0  0  0  0
 48 67  1  0  0  0  0
 48 68  1  0  0  0  0
 49 69  1  0  0  0  0
 49 70  1  0  0  0  0
 49 71  1  0  0  0  0
M  END
