 energy: -25.232984509672 gnorm: 0.000518105663 xtb: 6.7.1 (edcfbbe)
          03102511073D

134144  0     0  0            999 V2000
   -1.2943    3.8220    0.6588 C   0  0  0  0  0  0  0  0  0  0  0  0
   -1.2274    2.4385    0.5260 C   0  0  0  0  0  0  0  0  0  0  0  0
    0.0388    1.8288    0.6616 C   0  0  0  0  0  0  0  0  0  0  0  0
    1.2118    2.5758    0.9116 C   0  0  0  0  0  0  0  0  0  0  0  0
    1.0650    3.9658    1.0417 C   0  0  0  0  0  0  0  0  0  0  0  0
   -0.1627    4.5937    0.9239 C   0  0  0  0  0  0  0  0  0  0  0  0
    0.1363    0.4426    0.5537 C   0  0  0  0  0  0  0  0  0  0  0  0
    1.3747   -0.1667    0.6710 C   0  0  0  0  0  0  0  0  0  0  0  0
    2.5118    0.6435    0.9144 C   0  0  0  0  0  0  0  0  0  0  0  0
    2.4319    1.9926    1.0465 N   0  0  0  0  0  0  0  0  0  0  0  0
   -0.9913   -0.3378    0.3075 C   0  0  0  0  0  0  0  0  0  0  0  0
   -0.8369   -1.7373    0.1812 C   0  0  0  0  0  0  0  0  0  0  0  0
    0.3714   -2.3494    0.2864 N   0  0  0  0  0  0  0  0  0  0  0  0
    1.4598   -1.5746    0.5267 C   0  0  0  0  0  0  0  0  0  0  0  0
    2.7343   -2.1485    0.6243 C   0  0  0  0  0  0  0  0  0  0  0  0
    3.8735   -1.3845    0.8482 C   0  0  0  0  0  0  0  0  0  0  0  0
    3.7480   -0.0097    0.9997 C   0  0  0  0  0  0  0  0  0  0  0  0
   -2.2431    0.2992    0.1695 C   0  0  0  0  0  0  0  0  0  0  0  0
   -3.3432   -0.5046   -0.1054 C   0  0  0  0  0  0  0  0  0  0  0  0
   -3.2355   -1.8879   -0.2393 C   0  0  0  0  0  0  0  0  0  0  0  0
   -1.9941   -2.4842   -0.0900 C   0  0  0  0  0  0  0  0  0  0  0  0
   -0.2457    6.1148    1.1200 C   0  0  0  0  0  0  0  0  0  0  0  0
   -4.4874   -2.6978   -0.6046 C   0  0  0  0  0  0  0  0  0  0  0  0
    5.2723   -2.0136    0.9196 C   0  0  0  0  0  0  0  0  0  0  0  0
   -5.6179   -2.3761    0.3905 C   0  0  0  0  0  0  0  0  0  0  0  0
   -4.2141   -4.2126   -0.5637 C   0  0  0  0  0  0  0  0  0  0  0  0
   -4.9320   -2.3191   -2.0282 C   0  0  0  0  0  0  0  0  0  0  0  0
    6.1547   -1.4230   -0.1955 C   0  0  0  0  0  0  0  0  0  0  0  0
    5.8949   -1.7011    2.2924 C   0  0  0  0  0  0  0  0  0  0  0  0
    5.2200   -3.5415    0.7328 C   0  0  0  0  0  0  0  0  0  0  0  0
   -1.6727    6.6443    0.8829 C   0  0  0  0  0  0  0  0  0  0  0  0
    0.1696    6.4611    2.5613 C   0  0  0  0  0  0  0  0  0  0  0  0
    0.7007    6.8125    0.1259 C   0  0  0  0  0  0  0  0  0  0  0  0
    1.9463    4.5427    1.2507 H   0  0  0  0  0  0  0  0  0  0  0  0
   -2.2602    4.2787    0.5632 H   0  0  0  0  0  0  0  0  0  0  0  0
    4.6190    0.5924    1.1783 H   0  0  0  0  0  0  0  0  0  0  0  0
    2.8004   -3.2147    0.5220 H   0  0  0  0  0  0  0  0  0  0  0  0
   -1.8805   -3.5472   -0.1836 H   0  0  0  0  0  0  0  0  0  0  0  0
   -4.2938   -0.0222   -0.2312 H   0  0  0  0  0  0  0  0  0  0  0  0
    0.4435    6.5487   -0.8994 H   0  0  0  0  0  0  0  0  0  0  0  0
    0.6360    7.8961    0.2218 H   0  0  0  0  0  0  0  0  0  0  0  0
    1.7375    6.5265    0.2958 H   0  0  0  0  0  0  0  0  0  0  0  0
    0.1306    7.5368    2.7308 H   0  0  0  0  0  0  0  0  0  0  0  0
    1.1843    6.1259    2.7722 H   0  0  0  0  0  0  0  0  0  0  0  0
   -0.4963    5.9836    3.2790 H   0  0  0  0  0  0  0  0  0  0  0  0
   -2.3765    6.2081    1.5912 H   0  0  0  0  0  0  0  0  0  0  0  0
   -1.7092    7.7261    1.0083 H   0  0  0  0  0  0  0  0  0  0  0  0
   -2.0117    6.4170   -0.1274 H   0  0  0  0  0  0  0  0  0  0  0  0
    6.2664   -0.3454   -0.0845 H   0  0  0  0  0  0  0  0  0  0  0  0
    5.7162   -1.6141   -1.1745 H   0  0  0  0  0  0  0  0  0  0  0  0
    7.1506   -1.8648   -0.1796 H   0  0  0  0  0  0  0  0  0  0  0  0
    4.8142   -3.8031   -0.2439 H   0  0  0  0  0  0  0  0  0  0  0  0
    6.2177   -3.9745    0.8011 H   0  0  0  0  0  0  0  0  0  0  0  0
    4.6019   -4.0085    1.4970 H   0  0  0  0  0  0  0  0  0  0  0  0
    6.0630   -0.6322    2.4160 H   0  0  0  0  0  0  0  0  0  0  0  0
    6.8532   -2.2054    2.4130 H   0  0  0  0  0  0  0  0  0  0  0  0
    5.2344   -2.0242    3.0950 H   0  0  0  0  0  0  0  0  0  0  0  0
   -5.1726   -1.2589   -2.0959 H   0  0  0  0  0  0  0  0  0  0  0  0
   -4.1402   -2.5281   -2.7469 H   0  0  0  0  0  0  0  0  0  0  0  0
   -5.8157   -2.8835   -2.3245 H   0  0  0  0  0  0  0  0  0  0  0  0
   -5.1235   -4.7755   -0.7722 H   0  0  0  0  0  0  0  0  0  0  0  0
   -3.8491   -4.5152    0.4162 H   0  0  0  0  0  0  0  0  0  0  0  0
   -3.4736   -4.4995   -1.3096 H   0  0  0  0  0  0  0  0  0  0  0  0
   -5.2912   -2.5538    1.4134 H   0  0  0  0  0  0  0  0  0  0  0  0
   -5.9281   -1.3350    0.3186 H   0  0  0  0  0  0  0  0  0  0  0  0
   -6.4946   -2.9942    0.1991 H   0  0  0  0  0  0  0  0  0  0  0  0
   -2.3696    1.6806    0.2861 O   0  0  0  0  0  0  0  0  0  0  0  0
   -1.1244   -0.1460    3.9762 C   0  0  0  0  0  0  0  0  0  0  0  0
   -1.1595   -1.5036    3.6759 C   0  0  0  0  0  0  0  0  0  0  0  0
    0.0697   -2.1980    3.6571 C   0  0  0  0  0  0  0  0  0  0  0  0
    1.2995   -1.5659    3.9521 C   0  0  0  0  0  0  0  0  0  0  0  0
    1.2533   -0.1953    4.2518 C   0  0  0  0  0  0  0  0  0  0  0  0
    0.0672    0.5195    4.2662 C   0  0  0  0  0  0  0  0  0  0  0  0
    0.0673   -3.5647    3.3831 C   0  0  0  0  0  0  0  0  0  0  0  0
    1.2608   -4.2690    3.4163 C   0  0  0  0  0  0  0  0  0  0  0  0
    2.4545   -3.5771    3.7436 C   0  0  0  0  0  0  0  0  0  0  0  0
    2.4773   -2.2431    3.9955 N   0  0  0  0  0  0  0  0  0  0  0  0
   -1.1272   -4.2471    3.1541 C   0  0  0  0  0  0  0  0  0  0  0  0
   -1.0816   -5.6438    2.9425 C   0  0  0  0  0  0  0  0  0  0  0  0
    0.0841   -6.3424    2.9299 N   0  0  0  0  0  0  0  0  0  0  0  0
    1.2352   -5.6662    3.1770 C   0  0  0  0  0  0  0  0  0  0  0  0
    2.4584   -6.3464    3.2499 C   0  0  0  0  0  0  0  0  0  0  0  0
    3.6463   -5.7055    3.5759 C   0  0  0  0  0  0  0  0  0  0  0  0
    3.6278   -4.3398    3.8297 C   0  0  0  0  0  0  0  0  0  0  0  0
   -2.3450   -3.5347    3.2135 C   0  0  0  0  0  0  0  0  0  0  0  0
   -3.5232   -4.2614    3.0701 C   0  0  0  0  0  0  0  0  0  0  0  0
   -3.5226   -5.6414    2.8627 C   0  0  0  0  0  0  0  0  0  0  0  0
   -2.3105   -6.3064    2.7958 C   0  0  0  0  0  0  0  0  0  0  0  0
    0.0467    1.9864    4.7233 C   0  0  0  0  0  0  0  0  0  0  0  0
   -4.8267   -6.4530    2.8051 C   0  0  0  0  0  0  0  0  0  0  0  0
    4.9387   -6.5310    3.6724 C   0  0  0  0  0  0  0  0  0  0  0  0
   -6.0644   -5.5433    2.6864 C   0  0  0  0  0  0  0  0  0  0  0  0
   -4.9488   -7.2803    4.0968 C   0  0  0  0  0  0  0  0  0  0  0  0
   -4.8089   -7.3986    1.5885 C   0  0  0  0  0  0  0  0  0  0  0  0
    6.1576   -5.6529    4.0164 C   0  0  0  0  0  0  0  0  0  0  0  0
    4.7785   -7.5916    4.7768 C   0  0  0  0  0  0  0  0  0  0  0  0
    5.2053   -7.2237    2.3232 C   0  0  0  0  0  0  0  0  0  0  0  0
   -1.0991    2.7573    4.0410 C   0  0  0  0  0  0  0  0  0  0  0  0
   -0.1598    2.0247    6.2461 C   0  0  0  0  0  0  0  0  0  0  0  0
    1.3741    2.6902    4.3755 C   0  0  0  0  0  0  0  0  0  0  0  0
    2.1816    0.2862    4.4927 H   0  0  0  0  0  0  0  0  0  0  0  0
   -2.0613    0.3759    4.0032 H   0  0  0  0  0  0  0  0  0  0  0  0
    4.5259   -3.8319    4.1222 H   0  0  0  0  0  0  0  0  0  0  0  0
    2.4514   -7.4049    3.0693 H   0  0  0  0  0  0  0  0  0  0  0  0
   -2.2870   -7.3724    2.6694 H   0  0  0  0  0  0  0  0  0  0  0  0
   -4.4465   -3.7237    3.1595 H   0  0  0  0  0  0  0  0  0  0  0  0
    1.6256    2.5456    3.3269 H   0  0  0  0  0  0  0  0  0  0  0  0
    1.3076    3.7618    4.5615 H   0  0  0  0  0  0  0  0  0  0  0  0
    2.1982    2.3085    4.9763 H   0  0  0  0  0  0  0  0  0  0  0  0
   -0.1802    3.0509    6.6121 H   0  0  0  0  0  0  0  0  0  0  0  0
    0.6438    1.4972    6.7590 H   0  0  0  0  0  0  0  0  0  0  0  0
   -1.1003    1.5483    6.5210 H   0  0  0  0  0  0  0  0  0  0  0  0
   -2.0748    2.4054    4.3720 H   0  0  0  0  0  0  0  0  0  0  0  0
   -1.0447    3.8205    4.2714 H   0  0  0  0  0  0  0  0  0  0  0  0
   -1.0461    2.6433    2.9612 H   0  0  0  0  0  0  0  0  0  0  0  0
    6.0312   -5.1669    4.9833 H   0  0  0  0  0  0  0  0  0  0  0  0
    6.3161   -4.8847    3.2607 H   0  0  0  0  0  0  0  0  0  0  0  0
    7.0645   -6.2548    4.0683 H   0  0  0  0  0  0  0  0  0  0  0  0
    5.3006   -6.4898    1.5239 H   0  0  0  0  0  0  0  0  0  0  0  0
    6.1269   -7.8040    2.3589 H   0  0  0  0  0  0  0  0  0  0  0  0
    4.3957   -7.9020    2.0583 H   0  0  0  0  0  0  0  0  0  0  0  0
    4.5700   -7.1188    5.7361 H   0  0  0  0  0  0  0  0  0  0  0  0
    5.6863   -8.1848    4.8829 H   0  0  0  0  0  0  0  0  0  0  0  0
    3.9584   -8.2732    4.5556 H   0  0  0  0  0  0  0  0  0  0  0  0
   -4.6700   -6.8401    0.6641 H   0  0  0  0  0  0  0  0  0  0  0  0
   -4.0062   -8.1304    1.6610 H   0  0  0  0  0  0  0  0  0  0  0  0
   -5.7468   -7.9478    1.5107 H   0  0  0  0  0  0  0  0  0  0  0  0
   -5.8660   -7.8685    4.0997 H   0  0  0  0  0  0  0  0  0  0  0  0
   -4.9616   -6.6292    4.9704 H   0  0  0  0  0  0  0  0  0  0  0  0
   -4.1092   -7.9660    4.2040 H   0  0  0  0  0  0  0  0  0  0  0  0
   -6.1680   -4.8990    3.5587 H   0  0  0  0  0  0  0  0  0  0  0  0
   -6.0053   -4.9177    1.7975 H   0  0  0  0  0  0  0  0  0  0  0  0
   -6.9746   -6.1378    2.6118 H   0  0  0  0  0  0  0  0  0  0  0  0
   -2.3647   -2.1611    3.4412 O   0  0  0  0  0  0  0  0  0  0  0  0
  1  2  2  0  0  0  0
  1 35  1  0  0  0  0
  2  3  1  0  0  0  0
  3  4  2  0  0  0  0
  3  7  1  0  0  0  0
  4  5  1  0  0  0  0
  5  6  2  0  0  0  0
  5 34  1  0  0  0  0
  6  1  1  0  0  0  0
  6 22  1  0  0  0  0
  7 11  2  0  0  0  0
  8  7  1  0  0  0  0
  8  9  1  0  0  0  0
  9 10  2  0  0  0  0
 10  4  1  0  0  0  0
 11 12  1  0  0  0  0
 11 18  1  0  0  0  0
 12 13  2  0  0  0  0
 13 14  1  0  0  0  0
 14  8  1  0  0  0  0
 14 15  2  0  0  0  0
 15 16  1  0  0  0  0
 15 37  1  0  0  0  0
 16 17  2  0  0  0  0
 16 24  1  0  0  0  0
 17  9  1  0  0  0  0
 17 36  1  0  0  0  0
 18 19  2  0  0  0  0
 18 67  1  0  0  0  0
 19 20  1  0  0  0  0
 19 39  1  0  0  0  0
 20 21  2  0  0  0  0
 20 23  1  0  0  0  0
 21 12  1  0  0  0  0
 21 38  1  0  0  0  0
 22 31  1  0  0  0  0
 22 32  1  0  0  0  0
 22 33  1  0  0  0  0
 23 25  1  0  0  0  0
 23 26  1  0  0  0  0
 23 27  1  0  0  0  0
 24 28  1  0  0  0  0
 24 29  1  0  0  0  0
 24 30  1  0  0  0  0
 25 64  1  0  0  0  0
 25 65  1  0  0  0  0
 25 66  1  0  0  0  0
 26 61  1  0  0  0  0
 26 62  1  0  0  0  0
 26 63  1  0  0  0  0
 27 58  1  0  0  0  0
 27 59  1  0  0  0  0
 27 60  1  0  0  0  0
 28 49  1  0  0  0  0
 28 50  1  0  0  0  0
 28 51  1  0  0  0  0
 29 55  1  0  0  0  0
 29 56  1  0  0  0  0
 29 57  1  0  0  0  0
 30 52  1  0  0  0  0
 30 53  1  0  0  0  0
 30 54  1  0  0  0  0
 31 46  1  0  0  0  0
 31 47  1  0  0  0  0
 31 48  1  0  0  0  0
 32 43  1  0  0  0  0
 32 44  1  0  0  0  0
 32 45  1  0  0  0  0
 33 40  1  0  0  0  0
 33 41  1  0  0  0  0
 33 42  1  0  0  0  0
 67  2  1  0  0  0  0
 68 69  2  0  0  0  0
 68102  1  0  0  0  0
 69 70  1  0  0  0  0
 70 71  2  0  0  0  0
 70 74  1  0  0  0  0
 71 72  1  0  0  0  0
 72 73  2  0  0  0  0
 72101  1  0  0  0  0
 73 68  1  0  0  0  0
 73 89  1  0  0  0  0
 74 78  2  0  0  0  0
 75 74  1  0  0  0  0
 75 76  1  0  0  0  0
 76 77  2  0  0  0  0
 77 71  1  0  0  0  0
 78 79  1  0  0  0  0
 78 85  1  0  0  0  0
 79 80  2  0  0  0  0
 80 81  1  0  0  0  0
 81 75  1  0  0  0  0
 81 82  2  0  0  0  0
 82 83  1  0  0  0  0
 82104  1  0  0  0  0
 83 84  2  0  0  0  0
 83 91  1  0  0  0  0
 84 76  1  0  0  0  0
 84103  1  0  0  0  0
 85 86  2  0  0  0  0
 85134  1  0  0  0  0
 86 87  1  0  0  0  0
 86106  1  0  0  0  0
 87 88  2  0  0  0  0
 87 90  1  0  0  0  0
 88 79  1  0  0  0  0
 88105  1  0  0  0  0
 89 98  1  0  0  0  0
 89 99  1  0  0  0  0
 89100  1  0  0  0  0
 90 92  1  0  0  0  0
 90 93  1  0  0  0  0
 90 94  1  0  0  0  0
 91 95  1  0  0  0  0
 91 96  1  0  0  0  0
 91 97  1  0  0  0  0
 92131  1  0  0  0  0
 92132  1  0  0  0  0
 92133  1  0  0  0  0
 93128  1  0  0  0  0
 93129  1  0  0  0  0
 93130  1  0  0  0  0
 94125  1  0  0  0  0
 94126  1  0  0  0  0
 94127  1  0  0  0  0
 95116  1  0  0  0  0
 95117  1  0  0  0  0
 95118  1  0  0  0  0
 96122  1  0  0  0  0
 96123  1  0  0  0  0
 96124  1  0  0  0  0
 97119  1  0  0  0  0
 97120  1  0  0  0  0
 97121  1  0  0  0  0
 98113  1  0  0  0  0
 98114  1  0  0  0  0
 98115  1  0  0  0  0
 99110  1  0  0  0  0
 99111  1  0  0  0  0
 99112  1  0  0  0  0
100107  1  0  0  0  0
100108  1  0  0  0  0
100109  1  0  0  0  0
134 69  1  0  0  0  0
M  END
