 energy: -186.469060220777 gnorm: 0.000137399035 xtb: 6.7.1 (edcfbbe)
          03102511083D

134144  0     0  0            999 V2000
   -1.4162    3.7577    0.6985 C   0  0  0  0  0  0  0  0  0  0  0  0
   -1.3307    2.3809    0.6044 C   0  0  0  0  0  0  0  0  0  0  0  0
   -0.0845    1.7716    0.7862 C   0  0  0  0  0  0  0  0  0  0  0  0
    1.0966    2.5113    1.0474 C   0  0  0  0  0  0  0  0  0  0  0  0
    0.9576    3.9081    1.1425 C   0  0  0  0  0  0  0  0  0  0  0  0
   -0.2698    4.5232    0.9747 C   0  0  0  0  0  0  0  0  0  0  0  0
    0.0205    0.3773    0.6803 C   0  0  0  0  0  0  0  0  0  0  0  0
    1.2524   -0.2374    0.8023 C   0  0  0  0  0  0  0  0  0  0  0  0
    2.3849    0.5820    1.0545 C   0  0  0  0  0  0  0  0  0  0  0  0
    2.2927    1.9099    1.1881 N   0  0  0  0  0  0  0  0  0  0  0  0
   -1.1180   -0.3814    0.3807 C   0  0  0  0  0  0  0  0  0  0  0  0
   -0.9639   -1.7822    0.2240 C   0  0  0  0  0  0  0  0  0  0  0  0
    0.2345   -2.3813    0.3558 N   0  0  0  0  0  0  0  0  0  0  0  0
    1.3209   -1.6437    0.6182 C   0  0  0  0  0  0  0  0  0  0  0  0
    2.6076   -2.2268    0.6828 C   0  0  0  0  0  0  0  0  0  0  0  0
    3.7399   -1.4510    0.9093 C   0  0  0  0  0  0  0  0  0  0  0  0
    3.6293   -0.0762    1.1137 C   0  0  0  0  0  0  0  0  0  0  0  0
   -2.3425    0.2725    0.1977 C   0  0  0  0  0  0  0  0  0  0  0  0
   -3.4401   -0.4817   -0.1536 C   0  0  0  0  0  0  0  0  0  0  0  0
   -3.3292   -1.8770   -0.3159 C   0  0  0  0  0  0  0  0  0  0  0  0
   -2.1208   -2.5132   -0.1175 C   0  0  0  0  0  0  0  0  0  0  0  0
   -0.3444    6.0393    1.0999 C   0  0  0  0  0  0  0  0  0  0  0  0
   -4.5753   -2.6252   -0.7667 C   0  0  0  0  0  0  0  0  0  0  0  0
    5.1394   -2.0505    0.9233 C   0  0  0  0  0  0  0  0  0  0  0  0
   -5.7472   -2.2958    0.1692 C   0  0  0  0  0  0  0  0  0  0  0  0
   -4.3699   -4.1413   -0.7722 C   0  0  0  0  0  0  0  0  0  0  0  0
   -4.9171   -2.1774   -2.1956 C   0  0  0  0  0  0  0  0  0  0  0  0
    5.9436   -1.4503   -0.2397 C   0  0  0  0  0  0  0  0  0  0  0  0
    5.8083   -1.7007    2.2612 C   0  0  0  0  0  0  0  0  0  0  0  0
    5.1334   -3.5715    0.7564 C   0  0  0  0  0  0  0  0  0  0  0  0
   -1.7559    6.5908    0.8828 C   0  0  0  0  0  0  0  0  0  0  0  0
    0.1116    6.4405    2.5099 C   0  0  0  0  0  0  0  0  0  0  0  0
    0.5809    6.6737    0.0520 C   0  0  0  0  0  0  0  0  0  0  0  0
    1.8481    4.4790    1.3469 H   0  0  0  0  0  0  0  0  0  0  0  0
   -2.3785    4.2172    0.5570 H   0  0  0  0  0  0  0  0  0  0  0  0
    4.4997    0.5310    1.2994 H   0  0  0  0  0  0  0  0  0  0  0  0
    2.6696   -3.2910    0.5312 H   0  0  0  0  0  0  0  0  0  0  0  0
   -2.0078   -3.5768   -0.2354 H   0  0  0  0  0  0  0  0  0  0  0  0
   -4.3789    0.0214   -0.3142 H   0  0  0  0  0  0  0  0  0  0  0  0
    0.2793    6.3703   -0.9483 H   0  0  0  0  0  0  0  0  0  0  0  0
    0.5272    7.7584    0.1144 H   0  0  0  0  0  0  0  0  0  0  0  0
    1.6139    6.3744    0.2014 H   0  0  0  0  0  0  0  0  0  0  0  0
    0.0730    7.5219    2.6217 H   0  0  0  0  0  0  0  0  0  0  0  0
    1.1279    6.1119    2.7060 H   0  0  0  0  0  0  0  0  0  0  0  0
   -0.5422    5.9928    3.2553 H   0  0  0  0  0  0  0  0  0  0  0  0
   -2.4505    6.1948    1.6198 H   0  0  0  0  0  0  0  0  0  0  0  0
   -1.7388    7.6737    0.9879 H   0  0  0  0  0  0  0  0  0  0  0  0
   -2.1196    6.3578   -0.1152 H   0  0  0  0  0  0  0  0  0  0  0  0
    5.9973   -0.3675   -0.1693 H   0  0  0  0  0  0  0  0  0  0  0  0
    5.4801   -1.7064   -1.1904 H   0  0  0  0  0  0  0  0  0  0  0  0
    6.9575   -1.8449   -0.2331 H   0  0  0  0  0  0  0  0  0  0  0  0
    4.7028   -3.8598   -0.2000 H   0  0  0  0  0  0  0  0  0  0  0  0
    6.1572   -3.9414    0.7845 H   0  0  0  0  0  0  0  0  0  0  0  0
    4.5740   -4.0468    1.5583 H   0  0  0  0  0  0  0  0  0  0  0  0
    6.0846   -0.6509    2.3011 H   0  0  0  0  0  0  0  0  0  0  0  0
    6.7132   -2.2898    2.3959 H   0  0  0  0  0  0  0  0  0  0  0  0
    5.1234   -1.9023    3.0807 H   0  0  0  0  0  0  0  0  0  0  0  0
   -5.1046   -1.1078   -2.2401 H   0  0  0  0  0  0  0  0  0  0  0  0
   -4.0937   -2.4069   -2.8685 H   0  0  0  0  0  0  0  0  0  0  0  0
   -5.8062   -2.6969   -2.5466 H   0  0  0  0  0  0  0  0  0  0  0  0
   -5.3040   -4.6345   -1.0360 H   0  0  0  0  0  0  0  0  0  0  0  0
   -4.0556   -4.4887    0.2087 H   0  0  0  0  0  0  0  0  0  0  0  0
   -3.6217   -4.4317   -1.5057 H   0  0  0  0  0  0  0  0  0  0  0  0
   -5.4605   -2.4629    1.2042 H   0  0  0  0  0  0  0  0  0  0  0  0
   -6.0634   -1.2617    0.0682 H   0  0  0  0  0  0  0  0  0  0  0  0
   -6.6015   -2.9280   -0.0644 H   0  0  0  0  0  0  0  0  0  0  0  0
   -2.4477    1.6341    0.3324 O   0  0  0  0  0  0  0  0  0  0  0  0
   -0.9843   -0.1141    3.8874 C   0  0  0  0  0  0  0  0  0  0  0  0
   -0.9900   -1.4451    3.5181 C   0  0  0  0  0  0  0  0  0  0  0  0
    0.2246   -2.1411    3.5174 C   0  0  0  0  0  0  0  0  0  0  0  0
    1.4564   -1.5326    3.8729 C   0  0  0  0  0  0  0  0  0  0  0  0
    1.4102   -0.1719    4.2322 C   0  0  0  0  0  0  0  0  0  0  0  0
    0.2151    0.5210    4.2660 C   0  0  0  0  0  0  0  0  0  0  0  0
    0.2247   -3.5125    3.2285 C   0  0  0  0  0  0  0  0  0  0  0  0
    1.3996   -4.2379    3.3157 C   0  0  0  0  0  0  0  0  0  0  0  0
    2.5835   -3.5524    3.6932 C   0  0  0  0  0  0  0  0  0  0  0  0
    2.6020   -2.2367    3.9379 N   0  0  0  0  0  0  0  0  0  0  0  0
   -0.9885   -4.1688    2.9782 C   0  0  0  0  0  0  0  0  0  0  0  0
   -0.9595   -5.5776    2.8091 C   0  0  0  0  0  0  0  0  0  0  0  0
    0.1891   -6.2756    2.8469 N   0  0  0  0  0  0  0  0  0  0  0  0
    1.3377   -5.6420    3.1072 C   0  0  0  0  0  0  0  0  0  0  0  0
    2.5479   -6.3534    3.2473 C   0  0  0  0  0  0  0  0  0  0  0  0
    3.7299   -5.7152    3.6207 C   0  0  0  0  0  0  0  0  0  0  0  0
    3.7463   -4.3426    3.8499 C   0  0  0  0  0  0  0  0  0  0  0  0
   -2.1809   -3.4379    3.0087 C   0  0  0  0  0  0  0  0  0  0  0  0
   -3.3773   -4.1213    2.8874 C   0  0  0  0  0  0  0  0  0  0  0  0
   -3.3902   -5.5206    2.7361 C   0  0  0  0  0  0  0  0  0  0  0  0
   -2.2014   -6.2240    2.6750 C   0  0  0  0  0  0  0  0  0  0  0  0
    0.1678    1.9229    4.8612 C   0  0  0  0  0  0  0  0  0  0  0  0
   -4.6958   -6.3088    2.7348 C   0  0  0  0  0  0  0  0  0  0  0  0
    4.9842   -6.5650    3.7884 C   0  0  0  0  0  0  0  0  0  0  0  0
   -5.9402   -5.4192    2.6737 C   0  0  0  0  0  0  0  0  0  0  0  0
   -4.7478   -7.1142    4.0428 C   0  0  0  0  0  0  0  0  0  0  0  0
   -4.7426   -7.2736    1.5419 C   0  0  0  0  0  0  0  0  0  0  0  0
    6.2185   -5.7388    4.1600 C   0  0  0  0  0  0  0  0  0  0  0  0
    4.7388   -7.5888    4.9058 C   0  0  0  0  0  0  0  0  0  0  0  0
    5.2795   -7.2931    2.4695 C   0  0  0  0  0  0  0  0  0  0  0  0
   -0.9738    2.7691    4.2879 C   0  0  0  0  0  0  0  0  0  0  0  0
   -0.0627    1.7439    6.3714 C   0  0  0  0  0  0  0  0  0  0  0  0
    1.4824    2.6822    4.6440 C   0  0  0  0  0  0  0  0  0  0  0  0
    2.3382    0.2902    4.5199 H   0  0  0  0  0  0  0  0  0  0  0  0
   -1.9234    0.4121    3.9080 H   0  0  0  0  0  0  0  0  0  0  0  0
    4.6388   -3.8418    4.1818 H   0  0  0  0  0  0  0  0  0  0  0  0
    2.5140   -7.4188    3.0875 H   0  0  0  0  0  0  0  0  0  0  0  0
   -2.1871   -7.2961    2.5720 H   0  0  0  0  0  0  0  0  0  0  0  0
   -4.2919   -3.5575    2.9458 H   0  0  0  0  0  0  0  0  0  0  0  0
    1.7890    2.6380    3.6029 H   0  0  0  0  0  0  0  0  0  0  0  0
    1.3519    3.7264    4.9196 H   0  0  0  0  0  0  0  0  0  0  0  0
    2.2803    2.2777    5.2606 H   0  0  0  0  0  0  0  0  0  0  0  0
   -0.0943    2.7140    6.8626 H   0  0  0  0  0  0  0  0  0  0  0  0
    0.7392    1.1560    6.8120 H   0  0  0  0  0  0  0  0  0  0  0  0
   -1.0035    1.2298    6.5568 H   0  0  0  0  0  0  0  0  0  0  0  0
   -1.9481    2.3809    4.5724 H   0  0  0  0  0  0  0  0  0  0  0  0
   -0.9031    3.7829    4.6763 H   0  0  0  0  0  0  0  0  0  0  0  0
   -0.9127    2.8156    3.2049 H   0  0  0  0  0  0  0  0  0  0  0  0
    6.0858   -5.2406    5.1174 H   0  0  0  0  0  0  0  0  0  0  0  0
    6.4368   -4.9956    3.3974 H   0  0  0  0  0  0  0  0  0  0  0  0
    7.0801   -6.3982    4.2441 H   0  0  0  0  0  0  0  0  0  0  0  0
    5.4370   -6.5740    1.6687 H   0  0  0  0  0  0  0  0  0  0  0  0
    6.1784   -7.8973    2.5720 H   0  0  0  0  0  0  0  0  0  0  0  0
    4.4621   -7.9483    2.1832 H   0  0  0  0  0  0  0  0  0  0  0  0
    4.5102   -7.0786    5.8394 H   0  0  0  0  0  0  0  0  0  0  0  0
    5.6269   -8.1990    5.0550 H   0  0  0  0  0  0  0  0  0  0  0  0
    3.9088   -8.2472    4.6658 H   0  0  0  0  0  0  0  0  0  0  0  0
   -4.6543   -6.7298    0.6050 H   0  0  0  0  0  0  0  0  0  0  0  0
   -3.9426   -8.0059    1.5874 H   0  0  0  0  0  0  0  0  0  0  0  0
   -5.6888   -7.8104    1.5399 H   0  0  0  0  0  0  0  0  0  0  0  0
   -5.6684   -7.6919    4.0904 H   0  0  0  0  0  0  0  0  0  0  0  0
   -4.7152   -6.4445    4.8998 H   0  0  0  0  0  0  0  0  0  0  0  0
   -3.9070   -7.7985    4.1144 H   0  0  0  0  0  0  0  0  0  0  0  0
   -6.0102   -4.7765    3.5479 H   0  0  0  0  0  0  0  0  0  0  0  0
   -5.9404   -4.8068    1.7767 H   0  0  0  0  0  0  0  0  0  0  0  0
   -6.8291   -6.0465    2.6534 H   0  0  0  0  0  0  0  0  0  0  0  0
   -2.1710   -2.0816    3.2217 O   0  0  0  0  0  0  0  0  0  0  0  0
  1  2  2  0  0  0  0
  1 35  1  0  0  0  0
  2  3  1  0  0  0  0
  3  4  2  0  0  0  0
  3  7  1  0  0  0  0
  4  5  1  0  0  0  0
  5  6  2  0  0  0  0
  5 34  1  0  0  0  0
  6  1  1  0  0  0  0
  6 22  1  0  0  0  0
  7 11  2  0  0  0  0
  8  7  1  0  0  0  0
  8  9  1  0  0  0  0
  9 10  2  0  0  0  0
 10  4  1  0  0  0  0
 11 12  1  0  0  0  0
 11 18  1  0  0  0  0
 12 13  2  0  0  0  0
 13 14  1  0  0  0  0
 14  8  1  0  0  0  0
 14 15  2  0  0  0  0
 15 16  1  0  0  0  0
 15 37  1  0  0  0  0
 16 17  2  0  0  0  0
 16 24  1  0  0  0  0
 17  9  1  0  0  0  0
 17 36  1  0  0  0  0
 18 19  2  0  0  0  0
 18 67  1  0  0  0  0
 19 20  1  0  0  0  0
 19 39  1  0  0  0  0
 20 21  2  0  0  0  0
 20 23  1  0  0  0  0
 21 12  1  0  0  0  0
 21 38  1  0  0  0  0
 22 31  1  0  0  0  0
 22 32  1  0  0  0  0
 22 33  1  0  0  0  0
 23 25  1  0  0  0  0
 23 26  1  0  0  0  0
 23 27  1  0  0  0  0
 24 28  1  0  0  0  0
 24 29  1  0  0  0  0
 24 30  1  0  0  0  0
 25 64  1  0  0  0  0
 25 65  1  0  0  0  0
 25 66  1  0  0  0  0
 26 61  1  0  0  0  0
 26 62  1  0  0  0  0
 26 63  1  0  0  0  0
 27 58  1  0  0  0  0
 27 59  1  0  0  0  0
 27 60  1  0  0  0  0
 28 49  1  0  0  0  0
 28 50  1  0  0  0  0
 28 51  1  0  0  0  0
 29 55  1  0  0  0  0
 29 56  1  0  0  0  0
 29 57  1  0  0  0  0
 30 52  1  0  0  0  0
 30 53  1  0  0  0  0
 30 54  1  0  0  0  0
 31 46  1  0  0  0  0
 31 47  1  0  0  0  0
 31 48  1  0  0  0  0
 32 43  1  0  0  0  0
 32 44  1  0  0  0  0
 32 45  1  0  0  0  0
 33 40  1  0  0  0  0
 33 41  1  0  0  0  0
 33 42  1  0  0  0  0
 67  2  1  0  0  0  0
 68 69  2  0  0  0  0
 68102  1  0  0  0  0
 69 70  1  0  0  0  0
 70 71  2  0  0  0  0
 70 74  1  0  0  0  0
 71 72  1  0  0  0  0
 72 73  2  0  0  0  0
 72101  1  0  0  0  0
 73 68  1  0  0  0  0
 73 89  1  0  0  0  0
 74 78  2  0  0  0  0
 75 74  1  0  0  0  0
 75 76  1  0  0  0  0
 76 77  2  0  0  0  0
 77 71  1  0  0  0  0
 78 79  1  0  0  0  0
 78 85  1  0  0  0  0
 79 80  2  0  0  0  0
 80 81  1  0  0  0  0
 81 75  1  0  0  0  0
 81 82  2  0  0  0  0
 82 83  1  0  0  0  0
 82104  1  0  0  0  0
 83 84  2  0  0  0  0
 83 91  1  0  0  0  0
 84 76  1  0  0  0  0
 84103  1  0  0  0  0
 85 86  2  0  0  0  0
 85134  1  0  0  0  0
 86 87  1  0  0  0  0
 86106  1  0  0  0  0
 87 88  2  0  0  0  0
 87 90  1  0  0  0  0
 88 79  1  0  0  0  0
 88105  1  0  0  0  0
 89 98  1  0  0  0  0
 89 99  1  0  0  0  0
 89100  1  0  0  0  0
 90 92  1  0  0  0  0
 90 93  1  0  0  0  0
 90 94  1  0  0  0  0
 91 95  1  0  0  0  0
 91 96  1  0  0  0  0
 91 97  1  0  0  0  0
 92131  1  0  0  0  0
 92132  1  0  0  0  0
 92133  1  0  0  0  0
 93128  1  0  0  0  0
 93129  1  0  0  0  0
 93130  1  0  0  0  0
 94125  1  0  0  0  0
 94126  1  0  0  0  0
 94127  1  0  0  0  0
 95116  1  0  0  0  0
 95117  1  0  0  0  0
 95118  1  0  0  0  0
 96122  1  0  0  0  0
 96123  1  0  0  0  0
 96124  1  0  0  0  0
 97119  1  0  0  0  0
 97120  1  0  0  0  0
 97121  1  0  0  0  0
 98113  1  0  0  0  0
 98114  1  0  0  0  0
 98115  1  0  0  0  0
 99110  1  0  0  0  0
 99111  1  0  0  0  0
 99112  1  0  0  0  0
100107  1  0  0  0  0
100108  1  0  0  0  0
100109  1  0  0  0  0
134 69  1  0  0  0  0
M  END
