 energy: -30.665966303808 gnorm: 0.000289905085 xtb: 6.7.1 (edcfbbe)
          03132510333D

156164  0     0  0            999 V2000
   -1.6066    1.9830   -0.0506 C   0  0  0  0  0  0  0  0  0  0  0  0
   -1.7310    0.6290    0.2454 C   0  0  0  0  0  0  0  0  0  0  0  0
   -0.8797    0.0661    1.2525 C   0  0  0  0  0  0  0  0  0  0  0  0
    0.2247    0.8354    1.6882 C   0  0  0  0  0  0  0  0  0  0  0  0
    0.3237    2.1761    1.3201 C   0  0  0  0  0  0  0  0  0  0  0  0
   -0.6067    2.7833    0.5015 C   0  0  0  0  0  0  0  0  0  0  0  0
   -1.0656   -1.2710    1.7773 C   0  0  0  0  0  0  0  0  0  0  0  0
    0.0500   -1.9299    2.3694 C   0  0  0  0  0  0  0  0  0  0  0  0
    1.2059   -1.1985    2.7468 C   0  0  0  0  0  0  0  0  0  0  0  0
    1.2800    0.2380    2.5035 C   0  0  0  0  0  0  0  0  0  0  0  0
   -2.3351   -1.9720    1.7718 C   0  0  0  0  0  0  0  0  0  0  0  0
   -2.3482   -3.3870    1.8182 C   0  0  0  0  0  0  0  0  0  0  0  0
   -1.1489   -4.1175    2.2273 C   0  0  0  0  0  0  0  0  0  0  0  0
    0.0137   -3.3259    2.6252 C   0  0  0  0  0  0  0  0  0  0  0  0
    1.0946   -3.9326    3.2499 C   0  0  0  0  0  0  0  0  0  0  0  0
    2.2154   -3.2149    3.6541 C   0  0  0  0  0  0  0  0  0  0  0  0
    2.2503   -1.8528    3.3816 C   0  0  0  0  0  0  0  0  0  0  0  0
   -3.5976   -1.2945    1.8538 C   0  0  0  0  0  0  0  0  0  0  0  0
   -4.7520   -2.0228    1.5799 C   0  0  0  0  0  0  0  0  0  0  0  0
   -4.7427   -3.4069    1.4001 C   0  0  0  0  0  0  0  0  0  0  0  0
   -3.5410   -4.0715    1.5716 C   0  0  0  0  0  0  0  0  0  0  0  0
   -3.6079    0.0372    2.2947 O   0  0  0  0  0  0  0  0  0  0  0  0
   -2.6029   -0.2165   -0.4555 O   0  0  0  0  0  0  0  0  0  0  0  0
    2.2041    0.9184    2.9488 O   0  0  0  0  0  0  0  0  0  0  0  0
   -1.1455   -5.3462    2.2995 O   0  0  0  0  0  0  0  0  0  0  0  0
   -4.8909    0.6028    2.4456 C   0  0  0  0  0  0  0  0  0  0  0  0
   -3.5637    0.4376   -1.2546 C   0  0  0  0  0  0  0  0  0  0  0  0
   -6.0401   -4.1392    1.0086 C   0  0  0  0  0  0  0  0  0  0  0  0
   -5.8997   -5.6685    1.1552 C   0  0  0  0  0  0  0  0  0  0  0  0
   -7.2167   -3.6806    1.8966 C   0  0  0  0  0  0  0  0  0  0  0  0
   -6.3602   -3.8135   -0.4619 C   0  0  0  0  0  0  0  0  0  0  0  0
   -0.4813    4.2846    0.1887 C   0  0  0  0  0  0  0  0  0  0  0  0
   -0.4651    5.0819    1.5090 C   0  0  0  0  0  0  0  0  0  0  0  0
    0.8267    4.5392   -0.5835 C   0  0  0  0  0  0  0  0  0  0  0  0
   -1.6611    4.7932   -0.6648 C   0  0  0  0  0  0  0  0  0  0  0  0
    3.4206   -3.8986    4.3210 C   0  0  0  0  0  0  0  0  0  0  0  0
    3.9828   -3.0064    5.4464 C   0  0  0  0  0  0  0  0  0  0  0  0
    4.5132   -4.1340    3.2641 C   0  0  0  0  0  0  0  0  0  0  0  0
    3.0230   -5.2530    4.9413 C   0  0  0  0  0  0  0  0  0  0  0  0
    3.8505   -5.6801    5.5115 H   0  0  0  0  0  0  0  0  0  0  0  0
    2.7489   -5.9785    4.1740 H   0  0  0  0  0  0  0  0  0  0  0  0
    2.1768   -5.1357    5.6185 H   0  0  0  0  0  0  0  0  0  0  0  0
    4.7474   -3.5323    6.0219 H   0  0  0  0  0  0  0  0  0  0  0  0
    3.1881   -2.7118    6.1311 H   0  0  0  0  0  0  0  0  0  0  0  0
    4.4397   -2.0977    5.0529 H   0  0  0  0  0  0  0  0  0  0  0  0
    5.3886   -4.6169    3.7040 H   0  0  0  0  0  0  0  0  0  0  0  0
    4.8357   -3.1904    2.8200 H   0  0  0  0  0  0  0  0  0  0  0  0
    4.1430   -4.7723    2.4594 H   0  0  0  0  0  0  0  0  0  0  0  0
   -7.2734   -4.3164   -0.7883 H   0  0  0  0  0  0  0  0  0  0  0  0
   -5.5460   -4.1339   -1.1148 H   0  0  0  0  0  0  0  0  0  0  0  0
   -6.4979   -2.7401   -0.6037 H   0  0  0  0  0  0  0  0  0  0  0  0
   -8.1245   -4.2398    1.6583 H   0  0  0  0  0  0  0  0  0  0  0  0
   -7.4428   -2.6231    1.7534 H   0  0  0  0  0  0  0  0  0  0  0  0
   -6.9996   -3.8372    2.9543 H   0  0  0  0  0  0  0  0  0  0  0  0
   -6.8373   -6.1711    0.9069 H   0  0  0  0  0  0  0  0  0  0  0  0
   -5.6385   -5.9457    2.1783 H   0  0  0  0  0  0  0  0  0  0  0  0
   -5.1338   -6.0625    0.4848 H   0  0  0  0  0  0  0  0  0  0  0  0
   -4.7887    1.6182    2.8287 H   0  0  0  0  0  0  0  0  0  0  0  0
   -5.4803    0.0217    3.1554 H   0  0  0  0  0  0  0  0  0  0  0  0
   -5.3977    0.6458    1.4820 H   0  0  0  0  0  0  0  0  0  0  0  0
   -4.2727   -0.3011   -1.6281 H   0  0  0  0  0  0  0  0  0  0  0  0
   -3.0842    0.9213   -2.1056 H   0  0  0  0  0  0  0  0  0  0  0  0
   -4.1085    1.1708   -0.6603 H   0  0  0  0  0  0  0  0  0  0  0  0
   -1.5787    5.8681   -0.8424 H   0  0  0  0  0  0  0  0  0  0  0  0
   -2.6145    4.6140   -0.1636 H   0  0  0  0  0  0  0  0  0  0  0  0
   -1.6849    4.3032   -1.6402 H   0  0  0  0  0  0  0  0  0  0  0  0
    1.6977    4.2436    0.0039 H   0  0  0  0  0  0  0  0  0  0  0  0
    0.9367    5.5971   -0.8327 H   0  0  0  0  0  0  0  0  0  0  0  0
    0.8431    3.9700   -1.5151 H   0  0  0  0  0  0  0  0  0  0  0  0
   -0.4171    6.1566    1.3189 H   0  0  0  0  0  0  0  0  0  0  0  0
    0.3961    4.8179    2.1246 H   0  0  0  0  0  0  0  0  0  0  0  0
   -1.3665    4.8832    2.0923 H   0  0  0  0  0  0  0  0  0  0  0  0
    1.0381   -4.9916    3.4234 H   0  0  0  0  0  0  0  0  0  0  0  0
    3.1101   -1.2702    3.6585 H   0  0  0  0  0  0  0  0  0  0  0  0
    1.1659    2.7403    1.6776 H   0  0  0  0  0  0  0  0  0  0  0  0
   -2.2808    2.4180   -0.7624 H   0  0  0  0  0  0  0  0  0  0  0  0
   -5.6895   -1.5042    1.5157 H   0  0  0  0  0  0  0  0  0  0  0  0
   -3.5019   -5.1447    1.5288 H   0  0  0  0  0  0  0  0  0  0  0  0
    0.4375    1.2691    5.8508 C   0  0  0  0  0  0  0  0  0  0  0  0
    0.1834   -0.0683    6.1721 C   0  0  0  0  0  0  0  0  0  0  0  0
    0.9531   -0.6832    7.2188 C   0  0  0  0  0  0  0  0  0  0  0  0
    2.0376    0.0543    7.7536 C   0  0  0  0  0  0  0  0  0  0  0  0
    2.2512    1.3683    7.3755 C   0  0  0  0  0  0  0  0  0  0  0  0
    1.4564    1.9988    6.4298 C   0  0  0  0  0  0  0  0  0  0  0  0
    0.7583   -2.0489    7.6436 C   0  0  0  0  0  0  0  0  0  0  0  0
    1.8707   -2.7474    8.2258 C   0  0  0  0  0  0  0  0  0  0  0  0
    2.9837   -2.0393    8.7272 C   0  0  0  0  0  0  0  0  0  0  0  0
    3.0113   -0.5800    8.6467 C   0  0  0  0  0  0  0  0  0  0  0  0
   -0.4487   -2.8001    7.4041 C   0  0  0  0  0  0  0  0  0  0  0  0
   -0.3752   -4.2088    7.2535 C   0  0  0  0  0  0  0  0  0  0  0  0
    0.7968   -4.9446    7.7268 C   0  0  0  0  0  0  0  0  0  0  0  0
    1.9020   -4.1597    8.2729 C   0  0  0  0  0  0  0  0  0  0  0  0
    3.0092   -4.8063    8.7922 C   0  0  0  0  0  0  0  0  0  0  0  0
    4.1023   -4.1138    9.2913 C   0  0  0  0  0  0  0  0  0  0  0  0
    4.0628   -2.7267    9.2561 C   0  0  0  0  0  0  0  0  0  0  0  0
   -1.7534   -2.1965    7.3521 C   0  0  0  0  0  0  0  0  0  0  0  0
   -2.7824   -2.9272    6.7465 C   0  0  0  0  0  0  0  0  0  0  0  0
   -2.6132   -4.2391    6.3346 C   0  0  0  0  0  0  0  0  0  0  0  0
   -1.4371   -4.8910    6.6874 C   0  0  0  0  0  0  0  0  0  0  0  0
   -1.9277   -0.9524    7.9339 O   0  0  0  0  0  0  0  0  0  0  0  0
   -0.7379   -0.8164    5.4634 O   0  0  0  0  0  0  0  0  0  0  0  0
    3.8418    0.0765    9.2590 O   0  0  0  0  0  0  0  0  0  0  0  0
    0.8342   -6.1663    7.7053 O   0  0  0  0  0  0  0  0  0  0  0  0
   -3.2290   -0.4261    7.8240 C   0  0  0  0  0  0  0  0  0  0  0  0
   -1.5802   -0.0907    4.5989 C   0  0  0  0  0  0  0  0  0  0  0  0
   -3.7176   -4.9763    5.5690 C   0  0  0  0  0  0  0  0  0  0  0  0
   -3.1011   -6.0012    4.5941 C   0  0  0  0  0  0  0  0  0  0  0  0
   -4.6306   -5.7012    6.5686 C   0  0  0  0  0  0  0  0  0  0  0  0
   -4.5504   -3.9800    4.7392 C   0  0  0  0  0  0  0  0  0  0  0  0
    1.7272    3.4294    5.9435 C   0  0  0  0  0  0  0  0  0  0  0  0
    0.5099    4.3151    6.2605 C   0  0  0  0  0  0  0  0  0  0  0  0
    2.9705    4.0352    6.6206 C   0  0  0  0  0  0  0  0  0  0  0  0
    1.9637    3.4021    4.4221 C   0  0  0  0  0  0  0  0  0  0  0  0
    5.3197   -4.8924    9.8081 C   0  0  0  0  0  0  0  0  0  0  0  0
    6.4086   -3.9497   10.3544 C   0  0  0  0  0  0  0  0  0  0  0  0
    5.9169   -5.7111    8.6493 C   0  0  0  0  0  0  0  0  0  0  0  0
    4.8805   -5.8374   10.9413 C   0  0  0  0  0  0  0  0  0  0  0  0
    5.7314   -6.3879   11.3424 H   0  0  0  0  0  0  0  0  0  0  0  0
    4.1500   -6.5648   10.5902 H   0  0  0  0  0  0  0  0  0  0  0  0
    4.4273   -5.2748   11.7571 H   0  0  0  0  0  0  0  0  0  0  0  0
    7.2593   -4.5178   10.7307 H   0  0  0  0  0  0  0  0  0  0  0  0
    6.0259   -3.3438   11.1752 H   0  0  0  0  0  0  0  0  0  0  0  0
    6.7770   -3.2834    9.5750 H   0  0  0  0  0  0  0  0  0  0  0  0
    6.7940   -6.2696    8.9755 H   0  0  0  0  0  0  0  0  0  0  0  0
    6.2164   -5.0565    7.8316 H   0  0  0  0  0  0  0  0  0  0  0  0
    5.1932   -6.4236    8.2559 H   0  0  0  0  0  0  0  0  0  0  0  0
   -5.2363   -4.5106    4.0826 H   0  0  0  0  0  0  0  0  0  0  0  0
   -3.9040   -3.3607    4.1183 H   0  0  0  0  0  0  0  0  0  0  0  0
   -5.1468   -3.3242    5.3712 H   0  0  0  0  0  0  0  0  0  0  0  0
   -5.4299   -6.2326    6.0526 H   0  0  0  0  0  0  0  0  0  0  0  0
   -5.0855   -4.9929    7.2604 H   0  0  0  0  0  0  0  0  0  0  0  0
   -4.0649   -6.4250    7.1543 H   0  0  0  0  0  0  0  0  0  0  0  0
   -3.8666   -6.4454    3.9599 H   0  0  0  0  0  0  0  0  0  0  0  0
   -2.6065   -6.8133    5.1234 H   0  0  0  0  0  0  0  0  0  0  0  0
   -2.3663   -5.5259    3.9456 H   0  0  0  0  0  0  0  0  0  0  0  0
   -3.2480    0.5586    8.2918 H   0  0  0  0  0  0  0  0  0  0  0  0
   -3.9400   -1.0750    8.3367 H   0  0  0  0  0  0  0  0  0  0  0  0
   -3.5006   -0.3200    6.7735 H   0  0  0  0  0  0  0  0  0  0  0  0
   -2.3122   -0.7785    4.1731 H   0  0  0  0  0  0  0  0  0  0  0  0
   -0.9944    0.3375    3.7873 H   0  0  0  0  0  0  0  0  0  0  0  0
   -2.1026    0.6928    5.1478 H   0  0  0  0  0  0  0  0  0  0  0  0
    2.2567    4.3819    4.0474 H   0  0  0  0  0  0  0  0  0  0  0  0
    1.0636    3.0965    3.8929 H   0  0  0  0  0  0  0  0  0  0  0  0
    2.7418    2.6840    4.1626 H   0  0  0  0  0  0  0  0  0  0  0  0
    2.8423    4.0878    7.7013 H   0  0  0  0  0  0  0  0  0  0  0  0
    3.1531    5.0473    6.2602 H   0  0  0  0  0  0  0  0  0  0  0  0
    3.8592    3.4427    6.4054 H   0  0  0  0  0  0  0  0  0  0  0  0
    0.6757    5.3390    5.9265 H   0  0  0  0  0  0  0  0  0  0  0  0
    0.3165    4.3350    7.3325 H   0  0  0  0  0  0  0  0  0  0  0  0
   -0.3863    3.9438    5.7652 H   0  0  0  0  0  0  0  0  0  0  0  0
    3.0118   -5.8808    8.7811 H   0  0  0  0  0  0  0  0  0  0  0  0
    4.8911   -2.1464    9.6168 H   0  0  0  0  0  0  0  0  0  0  0  0
    3.0896    1.8782    7.8120 H   0  0  0  0  0  0  0  0  0  0  0  0
   -0.1398    1.7342    5.0763 H   0  0  0  0  0  0  0  0  0  0  0  0
   -3.7328   -2.4547    6.5969 H   0  0  0  0  0  0  0  0  0  0  0  0
   -1.3208   -5.9452    6.5164 H   0  0  0  0  0  0  0  0  0  0  0  0
  1  2  2  0  0  0  0
  1 76  1  0  0  0  0
  2  3  1  0  0  0  0
  2 23  1  0  0  0  0
  3  4  2  0  0  0  0
  3  7  1  0  0  0  0
  4  5  1  0  0  0  0
  5  6  2  0  0  0  0
  5 75  1  0  0  0  0
  6 32  1  0  0  0  0
  6  1  1  0  0  0  0
  7  8  1  0  0  0  0
  8  9  2  0  0  0  0
  9 10  1  0  0  0  0
 10  4  1  0  0  0  0
 10 24  2  0  0  0  0
 11 12  2  0  0  0  0
 11 18  1  0  0  0  0
 11  7  1  0  0  0  0
 12 13  1  0  0  0  0
 13 14  1  0  0  0  0
 13 25  2  0  0  0  0
 14  8  1  0  0  0  0
 14 15  2  0  0  0  0
 15 16  1  0  0  0  0
 15 73  1  0  0  0  0
 16 36  1  0  0  0  0
 16 17  2  0  0  0  0
 17  9  1  0  0  0  0
 17 74  1  0  0  0  0
 18 19  2  0  0  0  0
 19 20  1  0  0  0  0
 19 77  1  0  0  0  0
 20 28  1  0  0  0  0
 20 21  2  0  0  0  0
 21 12  1  0  0  0  0
 21 78  1  0  0  0  0
 22 26  1  0  0  0  0
 22 18  1  0  0  0  0
 23 27  1  0  0  0  0
 26 58  1  0  0  0  0
 26 59  1  0  0  0  0
 26 60  1  0  0  0  0
 27 61  1  0  0  0  0
 27 62  1  0  0  0  0
 27 63  1  0  0  0  0
 28 29  1  0  0  0  0
 28 30  1  0  0  0  0
 28 31  1  0  0  0  0
 29 55  1  0  0  0  0
 29 56  1  0  0  0  0
 29 57  1  0  0  0  0
 30 52  1  0  0  0  0
 30 53  1  0  0  0  0
 30 54  1  0  0  0  0
 31 49  1  0  0  0  0
 31 50  1  0  0  0  0
 31 51  1  0  0  0  0
 32 33  1  0  0  0  0
 32 34  1  0  0  0  0
 32 35  1  0  0  0  0
 33 70  1  0  0  0  0
 33 71  1  0  0  0  0
 33 72  1  0  0  0  0
 34 67  1  0  0  0  0
 34 68  1  0  0  0  0
 34 69  1  0  0  0  0
 35 64  1  0  0  0  0
 35 65  1  0  0  0  0
 35 66  1  0  0  0  0
 36 37  1  0  0  0  0
 36 38  1  0  0  0  0
 36 39  1  0  0  0  0
 37 43  1  0  0  0  0
 37 44  1  0  0  0  0
 37 45  1  0  0  0  0
 38 46  1  0  0  0  0
 38 47  1  0  0  0  0
 38 48  1  0  0  0  0
 39 40  1  0  0  0  0
 39 41  1  0  0  0  0
 39 42  1  0  0  0  0
 79 80  2  0  0  0  0
 79154  1  0  0  0  0
 80 81  1  0  0  0  0
 80101  1  0  0  0  0
 81 82  2  0  0  0  0
 81 85  1  0  0  0  0
 82 83  1  0  0  0  0
 83 84  2  0  0  0  0
 83153  1  0  0  0  0
 84110  1  0  0  0  0
 84 79  1  0  0  0  0
 85 86  1  0  0  0  0
 86 87  2  0  0  0  0
 87 88  1  0  0  0  0
 88 82  1  0  0  0  0
 88102  2  0  0  0  0
 89 90  2  0  0  0  0
 89 96  1  0  0  0  0
 89 85  1  0  0  0  0
 90 91  1  0  0  0  0
 91 92  1  0  0  0  0
 91103  2  0  0  0  0
 92 86  1  0  0  0  0
 92 93  2  0  0  0  0
 93 94  1  0  0  0  0
 93151  1  0  0  0  0
 94114  1  0  0  0  0
 94 95  2  0  0  0  0
 95 87  1  0  0  0  0
 95152  1  0  0  0  0
 96 97  2  0  0  0  0
 97 98  1  0  0  0  0
 97155  1  0  0  0  0
 98106  1  0  0  0  0
 98 99  2  0  0  0  0
 99 90  1  0  0  0  0
 99156  1  0  0  0  0
100104  1  0  0  0  0
100 96  1  0  0  0  0
101105  1  0  0  0  0
104136  1  0  0  0  0
104137  1  0  0  0  0
104138  1  0  0  0  0
105139  1  0  0  0  0
105140  1  0  0  0  0
105141  1  0  0  0  0
106107  1  0  0  0  0
106108  1  0  0  0  0
106109  1  0  0  0  0
107133  1  0  0  0  0
107134  1  0  0  0  0
107135  1  0  0  0  0
108130  1  0  0  0  0
108131  1  0  0  0  0
108132  1  0  0  0  0
109127  1  0  0  0  0
109128  1  0  0  0  0
109129  1  0  0  0  0
110111  1  0  0  0  0
110112  1  0  0  0  0
110113  1  0  0  0  0
111148  1  0  0  0  0
111149  1  0  0  0  0
111150  1  0  0  0  0
112145  1  0  0  0  0
112146  1  0  0  0  0
112147  1  0  0  0  0
113142  1  0  0  0  0
113143  1  0  0  0  0
113144  1  0  0  0  0
114115  1  0  0  0  0
114116  1  0  0  0  0
114117  1  0  0  0  0
115121  1  0  0  0  0
115122  1  0  0  0  0
115123  1  0  0  0  0
116124  1  0  0  0  0
116125  1  0  0  0  0
116126  1  0  0  0  0
117118  1  0  0  0  0
117119  1  0  0  0  0
117120  1  0  0  0  0
M  CHG  1   7  -1
M  CHG  1  85  -1
M  END
