 energy: -196.159824498531 gnorm: 0.000182960302 xtb: 6.7.1 (edcfbbe)
          03102515403D

137148  0     0  0            999 V2000
   -0.8971   -2.0460    1.3196 C   0  0  0  0  0  0  0  0  0  0  0  0
   -1.3576   -0.9181    0.6445 C   0  0  0  0  0  0  0  0  0  0  0  0
   -2.5985   -0.9660   -0.0549 C   0  0  0  0  0  0  0  0  0  0  0  0
   -3.1833   -2.2753   -0.1748 C   0  0  0  0  0  0  0  0  0  0  0  0
   -2.6276   -3.4008    0.4737 C   0  0  0  0  0  0  0  0  0  0  0  0
   -1.5374   -3.2867    1.2990 C   0  0  0  0  0  0  0  0  0  0  0  0
   -3.4160    0.1401   -0.4775 C   0  0  0  0  0  0  0  0  0  0  0  0
   -4.7342   -0.1712   -0.8728 C   0  0  0  0  0  0  0  0  0  0  0  0
   -5.1192   -1.5128   -1.1348 C   0  0  0  0  0  0  0  0  0  0  0  0
   -4.3328   -2.5340   -0.8096 N   0  0  0  0  0  0  0  0  0  0  0  0
   -3.1386    1.5472   -0.3941 C   0  0  0  0  0  0  0  0  0  0  0  0
   -4.2642    2.4281   -0.2441 C   0  0  0  0  0  0  0  0  0  0  0  0
   -5.5173    2.0799   -0.5430 N   0  0  0  0  0  0  0  0  0  0  0  0
   -5.7309    0.8385   -0.9832 C   0  0  0  0  0  0  0  0  0  0  0  0
   -6.9998    0.5084   -1.4898 C   0  0  0  0  0  0  0  0  0  0  0  0
   -7.3239   -0.7844   -1.8861 C   0  0  0  0  0  0  0  0  0  0  0  0
   -6.3878   -1.7850   -1.6927 C   0  0  0  0  0  0  0  0  0  0  0  0
   -1.8779    2.1771   -0.5004 C   0  0  0  0  0  0  0  0  0  0  0  0
   -1.7296    3.4901   -0.0706 C   0  0  0  0  0  0  0  0  0  0  0  0
   -2.8062    4.2814    0.3376 C   0  0  0  0  0  0  0  0  0  0  0  0
   -4.0678    3.7598    0.1793 C   0  0  0  0  0  0  0  0  0  0  0  0
   -0.6118    0.1756    0.8259 O   0  0  0  0  0  0  0  0  0  0  0  0
   -0.8546    1.5592   -1.1023 O   0  0  0  0  0  0  0  0  0  0  0  0
    0.1032    0.8445   -0.2674 B   0  0  0  0  0  0  0  0  0  0  0  0
    1.0768   -2.3141   -1.2329 C   0  0  0  0  0  0  0  0  0  0  0  0
    1.5473   -1.0786   -0.7948 C   0  0  0  0  0  0  0  0  0  0  0  0
    2.7812   -0.9979   -0.0869 C   0  0  0  0  0  0  0  0  0  0  0  0
    3.3474   -2.2626    0.3021 C   0  0  0  0  0  0  0  0  0  0  0  0
    2.7817   -3.4898   -0.1117 C   0  0  0  0  0  0  0  0  0  0  0  0
    1.7000   -3.5324   -0.9545 C   0  0  0  0  0  0  0  0  0  0  0  0
    3.6087    0.1625    0.1116 C   0  0  0  0  0  0  0  0  0  0  0  0
    4.9189   -0.0767    0.5777 C   0  0  0  0  0  0  0  0  0  0  0  0
    5.2834   -1.3422    1.1110 C   0  0  0  0  0  0  0  0  0  0  0  0
    4.4867   -2.4006    0.9898 N   0  0  0  0  0  0  0  0  0  0  0  0
    3.3509    1.5255   -0.2617 C   0  0  0  0  0  0  0  0  0  0  0  0
    4.4903    2.3431   -0.5748 C   0  0  0  0  0  0  0  0  0  0  0  0
    5.7354    2.0486   -0.1940 N   0  0  0  0  0  0  0  0  0  0  0  0
    5.9279    0.9220    0.4929 C   0  0  0  0  0  0  0  0  0  0  0  0
    7.1918    0.6937    1.0725 C   0  0  0  0  0  0  0  0  0  0  0  0
    7.4924   -0.4919    1.7243 C   0  0  0  0  0  0  0  0  0  0  0  0
    6.5413   -1.5032    1.7247 C   0  0  0  0  0  0  0  0  0  0  0  0
    2.0985    2.1799   -0.3026 C   0  0  0  0  0  0  0  0  0  0  0  0
    1.9740    3.3778   -0.9953 C   0  0  0  0  0  0  0  0  0  0  0  0
    3.0661    4.0549   -1.5438 C   0  0  0  0  0  0  0  0  0  0  0  0
    4.3182    3.5615   -1.2650 C   0  0  0  0  0  0  0  0  0  0  0  0
    1.0607    1.7153    0.4033 O   0  0  0  0  0  0  0  0  0  0  0  0
    0.8173   -0.0352   -1.1996 O   0  0  0  0  0  0  0  0  0  0  0  0
   -1.1044   -4.3989    2.2413 C   0  0  0  0  0  0  0  0  0  0  0  0
    0.4055   -4.3633    2.5045 C   0  0  0  0  0  0  0  0  0  0  0  0
   -1.4843   -5.7875    1.7152 C   0  0  0  0  0  0  0  0  0  0  0  0
   -1.8483   -4.1591    3.5657 C   0  0  0  0  0  0  0  0  0  0  0  0
   -2.6229    5.6931    0.8756 C   0  0  0  0  0  0  0  0  0  0  0  0
   -3.2907    5.7804    2.2550 C   0  0  0  0  0  0  0  0  0  0  0  0
   -1.1496    6.0771    1.0348 C   0  0  0  0  0  0  0  0  0  0  0  0
   -3.2834    6.6913   -0.0851 C   0  0  0  0  0  0  0  0  0  0  0  0
   -8.7022   -1.0489   -2.4775 C   0  0  0  0  0  0  0  0  0  0  0  0
   -8.8957   -2.5101   -2.8911 C   0  0  0  0  0  0  0  0  0  0  0  0
   -8.8859   -0.1713   -3.7233 C   0  0  0  0  0  0  0  0  0  0  0  0
   -9.7713   -0.6986   -1.4335 C   0  0  0  0  0  0  0  0  0  0  0  0
    1.2558   -4.8066   -1.6553 C   0  0  0  0  0  0  0  0  0  0  0  0
   -0.2547   -4.8104   -1.9182 C   0  0  0  0  0  0  0  0  0  0  0  0
    1.6257   -6.0653   -0.8627 C   0  0  0  0  0  0  0  0  0  0  0  0
    1.9979   -4.8429   -3.0016 C   0  0  0  0  0  0  0  0  0  0  0  0
    2.9092    5.3277   -2.3630 C   0  0  0  0  0  0  0  0  0  0  0  0
    3.5916    5.1205   -3.7223 C   0  0  0  0  0  0  0  0  0  0  0  0
    3.5753    6.4939   -1.6201 C   0  0  0  0  0  0  0  0  0  0  0  0
    1.4435    5.6895   -2.6164 C   0  0  0  0  0  0  0  0  0  0  0  0
    8.8340   -0.7353    2.4030 C   0  0  0  0  0  0  0  0  0  0  0  0
    9.7601    0.4819    2.3332 C   0  0  0  0  0  0  0  0  0  0  0  0
    8.5896   -1.0649    3.8820 C   0  0  0  0  0  0  0  0  0  0  0  0
    9.5377   -1.9141    1.7171 C   0  0  0  0  0  0  0  0  0  0  0  0
  -10.7664   -0.8885   -1.8330 H   0  0  0  0  0  0  0  0  0  0  0  0
   -9.7110    0.3472   -1.1460 H   0  0  0  0  0  0  0  0  0  0  0  0
   -9.6345   -1.3048   -0.5404 H   0  0  0  0  0  0  0  0  0  0  0  0
   -9.8840   -2.6368   -3.3311 H   0  0  0  0  0  0  0  0  0  0  0  0
   -8.8215   -3.1717   -2.0315 H   0  0  0  0  0  0  0  0  0  0  0  0
   -8.1548   -2.8055   -3.6300 H   0  0  0  0  0  0  0  0  0  0  0  0
   -9.8648   -0.3454   -4.1676 H   0  0  0  0  0  0  0  0  0  0  0  0
   -8.1231   -0.4071   -4.4624 H   0  0  0  0  0  0  0  0  0  0  0  0
   -8.8043    0.8834   -3.4769 H   0  0  0  0  0  0  0  0  0  0  0  0
   -1.5656   -4.9110    4.3010 H   0  0  0  0  0  0  0  0  0  0  0  0
   -2.9243   -4.2082    3.4107 H   0  0  0  0  0  0  0  0  0  0  0  0
   -1.6069   -3.1753    3.9615 H   0  0  0  0  0  0  0  0  0  0  0  0
    0.7184   -5.2751    3.0114 H   0  0  0  0  0  0  0  0  0  0  0  0
    0.6738   -3.5246    3.1408 H   0  0  0  0  0  0  0  0  0  0  0  0
    0.9595   -4.2706    1.5743 H   0  0  0  0  0  0  0  0  0  0  0  0
   -1.1002   -6.5539    2.3872 H   0  0  0  0  0  0  0  0  0  0  0  0
   -1.0662   -5.9556    0.7270 H   0  0  0  0  0  0  0  0  0  0  0  0
   -2.5632   -5.9056    1.6605 H   0  0  0  0  0  0  0  0  0  0  0  0
   -0.5781   -5.8031   -2.2285 H   0  0  0  0  0  0  0  0  0  0  0  0
   -0.5173   -4.1162   -2.7116 H   0  0  0  0  0  0  0  0  0  0  0  0
   -0.8047   -4.5246   -1.0256 H   0  0  0  0  0  0  0  0  0  0  0  0
    1.7066   -5.7239   -3.5716 H   0  0  0  0  0  0  0  0  0  0  0  0
    3.0739   -4.8700   -2.8410 H   0  0  0  0  0  0  0  0  0  0  0  0
    1.7642   -3.9558   -3.5857 H   0  0  0  0  0  0  0  0  0  0  0  0
    1.2339   -6.9471   -1.3678 H   0  0  0  0  0  0  0  0  0  0  0  0
    1.2084   -6.0292    0.1395 H   0  0  0  0  0  0  0  0  0  0  0  0
    2.7038   -6.1788   -0.7863 H   0  0  0  0  0  0  0  0  0  0  0  0
   -3.1780    6.7817    2.6687 H   0  0  0  0  0  0  0  0  0  0  0  0
   -2.8285    5.0694    2.9363 H   0  0  0  0  0  0  0  0  0  0  0  0
   -4.3506    5.5509    2.1919 H   0  0  0  0  0  0  0  0  0  0  0  0
    3.4622    7.4172   -2.1867 H   0  0  0  0  0  0  0  0  0  0  0  0
    4.6354    6.3078   -1.4725 H   0  0  0  0  0  0  0  0  0  0  0  0
    3.1140    6.6272   -0.6437 H   0  0  0  0  0  0  0  0  0  0  0  0
   -1.0753    7.0619    1.4949 H   0  0  0  0  0  0  0  0  0  0  0  0
   -0.6527    6.1210    0.0687 H   0  0  0  0  0  0  0  0  0  0  0  0
   -0.6278    5.3640    1.6680 H   0  0  0  0  0  0  0  0  0  0  0  0
   -3.1517    7.7096    0.2783 H   0  0  0  0  0  0  0  0  0  0  0  0
   -4.3475    6.4945   -0.1811 H   0  0  0  0  0  0  0  0  0  0  0  0
   -2.8327    6.6141   -1.0723 H   0  0  0  0  0  0  0  0  0  0  0  0
    3.4984    6.0166   -4.3344 H   0  0  0  0  0  0  0  0  0  0  0  0
    3.1252    4.2907   -4.2486 H   0  0  0  0  0  0  0  0  0  0  0  0
    4.6472    4.8951   -3.5999 H   0  0  0  0  0  0  0  0  0  0  0  0
    1.3886    6.5595   -3.2699 H   0  0  0  0  0  0  0  0  0  0  0  0
    0.9378    5.9375   -1.6863 H   0  0  0  0  0  0  0  0  0  0  0  0
    0.9173    4.8681   -3.0962 H   0  0  0  0  0  0  0  0  0  0  0  0
    9.6959   -1.6929    0.6635 H   0  0  0  0  0  0  0  0  0  0  0  0
    8.9435   -2.8206    1.7877 H   0  0  0  0  0  0  0  0  0  0  0  0
   10.5050   -2.0994    2.1818 H   0  0  0  0  0  0  0  0  0  0  0  0
    8.0811   -0.2359    4.3701 H   0  0  0  0  0  0  0  0  0  0  0  0
    9.5357   -1.2398    4.3921 H   0  0  0  0  0  0  0  0  0  0  0  0
    7.9724   -1.9522    3.9900 H   0  0  0  0  0  0  0  0  0  0  0  0
    9.3012    1.3468    2.8063 H   0  0  0  0  0  0  0  0  0  0  0  0
   10.0024    0.7293    1.3025 H   0  0  0  0  0  0  0  0  0  0  0  0
   10.6903    0.2627    2.8557 H   0  0  0  0  0  0  0  0  0  0  0  0
    7.9048    1.4948    0.9772 H   0  0  0  0  0  0  0  0  0  0  0  0
    6.7385   -2.4680    2.1648 H   0  0  0  0  0  0  0  0  0  0  0  0
    3.3158   -4.3713    0.2029 H   0  0  0  0  0  0  0  0  0  0  0  0
    5.2214    4.0888   -1.5286 H   0  0  0  0  0  0  0  0  0  0  0  0
   -4.9609    4.3433    0.3384 H   0  0  0  0  0  0  0  0  0  0  0  0
   -3.1752   -4.3205    0.3486 H   0  0  0  0  0  0  0  0  0  0  0  0
   -7.7121    1.3157   -1.5559 H   0  0  0  0  0  0  0  0  0  0  0  0
   -6.5899   -2.8172   -1.9233 H   0  0  0  0  0  0  0  0  0  0  0  0
    0.1804   -2.2735   -1.8302 H   0  0  0  0  0  0  0  0  0  0  0  0
    0.0059   -1.8975    1.8894 H   0  0  0  0  0  0  0  0  0  0  0  0
   -0.7266    3.8766   -0.0678 H   0  0  0  0  0  0  0  0  0  0  0  0
    0.9772    3.7689   -1.0896 H   0  0  0  0  0  0  0  0  0  0  0  0
  1135  1  0  0  0  0
  2  1  1  0  0  0  0
  2 22  1  0  0  0  0
  3  7  1  0  0  0  0
  3  2  2  0  0  0  0
  4  3  1  0  0  0  0
  5  4  2  0  0  0  0
  5  6  1  0  0  0  0
  6 48  1  0  0  0  0
  6  1  3  0  0  0  0
  7 11  1  0  0  0  0
  7  8  1  0  0  0  0
  9 17  1  0  0  0  0
  9  8  1  0  0  0  0
 10  4  1  0  0  0  0
 10  9  1  0  0  0  0
 11 18  2  0  0  0  0
 11 12  1  0  0  0  0
 12 21  2  0  0  0  0
 13 12  1  0  0  0  0
 14 13  1  0  0  0  0
 14  8  1  0  0  0  0
 15 16  1  0  0  0  0
 15 14  2  0  0  0  0
 16 17  1  0  0  0  0
 18 19  1  0  0  0  0
 19 20  2  0  0  0  0
 19136  1  0  0  0  0
 21 20  1  0  0  0  0
 23 18  1  0  0  0  0
 24 23  1  0  0  0  0
 24 22  1  0  0  0  0
 24 46  1  0  0  0  0
 25 26  1  0  0  0  0
 25134  1  0  0  0  0
 27 26  1  0  0  0  0
 27 31  2  0  0  0  0
 28 34  2  0  0  0  0
 28 27  1  0  0  0  0
 29 28  1  0  0  0  0
 29128  1  0  0  0  0
 29 30  1  0  0  0  0
 30 25  1  0  0  0  0
 30 60  1  0  0  0  0
 31 35  1  0  0  0  0
 32 31  1  0  0  0  0
 32 38  1  0  0  0  0
 33 32  2  0  0  0  0
 33 41  1  0  0  0  0
 34 33  1  0  0  0  0
 35 36  2  0  0  0  0
 35 42  1  0  0  0  0
 36 37  1  0  0  0  0
 38 37  1  0  0  0  0
 38 39  2  0  0  0  0
 39126  1  0  0  0  0
 40 39  1  0  0  0  0
 41127  1  0  0  0  0
 41 40  2  0  0  0  0
 42 46  1  0  0  0  0
 43 42  2  0  0  0  0
 43137  1  0  0  0  0
 44 45  2  0  0  0  0
 44 43  1  0  0  0  0
 45129  1  0  0  0  0
 45 36  1  0  0  0  0
 47 26  1  0  0  0  0
 47 24  1  0  0  0  0
 48 49  1  0  0  0  0
 49 84  1  0  0  0  0
 49 85  1  0  0  0  0
 49 86  1  0  0  0  0
 50 87  1  0  0  0  0
 50 48  1  0  0  0  0
 50 88  1  0  0  0  0
 51 83  1  0  0  0  0
 51 48  1  0  0  0  0
 52 20  1  0  0  0  0
 52 53  1  0  0  0  0
 52 54  1  0  0  0  0
 53100  1  0  0  0  0
 54107  1  0  0  0  0
 55 52  1  0  0  0  0
 56 16  1  0  0  0  0
 56 59  1  0  0  0  0
 57 56  1  0  0  0  0
 58 78  1  0  0  0  0
 58 56  1  0  0  0  0
 58 80  1  0  0  0  0
 59 72  1  0  0  0  0
 59 74  1  0  0  0  0
 59 73  1  0  0  0  0
 60 63  1  0  0  0  0
 60 62  1  0  0  0  0
 61 90  1  0  0  0  0
 61 60  1  0  0  0  0
 62 97  1  0  0  0  0
 62 96  1  0  0  0  0
 62 98  1  0  0  0  0
 63 94  1  0  0  0  0
 64 66  1  0  0  0  0
 64 44  1  0  0  0  0
 65113  1  0  0  0  0
 65 64  1  0  0  0  0
 66103  1  0  0  0  0
 66104  1  0  0  0  0
 67 64  1  0  0  0  0
 67115  1  0  0  0  0
 68 40  1  0  0  0  0
 68 70  1  0  0  0  0
 69123  1  0  0  0  0
 69 68  1  0  0  0  0
 70121  1  0  0  0  0
 70122  1  0  0  0  0
 70120  1  0  0  0  0
 71119  1  0  0  0  0
 71118  1  0  0  0  0
 71 68  1  0  0  0  0
 75 57  1  0  0  0  0
 76 57  1  0  0  0  0
 77 57  1  0  0  0  0
 79 58  1  0  0  0  0
 81 51  1  0  0  0  0
 82 51  1  0  0  0  0
 89 50  1  0  0  0  0
 91 61  1  0  0  0  0
 92 61  1  0  0  0  0
 93 63  1  0  0  0  0
 95 63  1  0  0  0  0
 99 53  1  0  0  0  0
101 53  1  0  0  0  0
102 66  1  0  0  0  0
105 54  1  0  0  0  0
106 54  1  0  0  0  0
108 55  1  0  0  0  0
109 55  1  0  0  0  0
110 55  1  0  0  0  0
111 65  1  0  0  0  0
112 65  1  0  0  0  0
114 67  1  0  0  0  0
116 67  1  0  0  0  0
117 71  1  0  0  0  0
124 69  1  0  0  0  0
125 69  1  0  0  0  0
130 21  1  0  0  0  0
131  5  1  0  0  0  0
132 15  1  0  0  0  0
133 17  1  0  0  0  0
M  CHG  1   1  -1
M  END
