 energy: -391.781460339516 gnorm: 0.000949828942 xtb: 6.7.1 (edcfbbe)
          03102516183D

274296  0     0  0            999 V2000
   -2.3089   -2.6413    1.7737 C   0  0  0  0  0  0  0  0  0  0  0  0
   -2.6175   -1.3667    1.2934 C   0  0  0  0  0  0  0  0  0  0  0  0
   -3.7135   -1.1969    0.3978 C   0  0  0  0  0  0  0  0  0  0  0  0
   -4.3004   -2.4214   -0.0947 C   0  0  0  0  0  0  0  0  0  0  0  0
   -3.9069   -3.6854    0.3953 C   0  0  0  0  0  0  0  0  0  0  0  0
   -2.9775   -3.8107    1.3954 C   0  0  0  0  0  0  0  0  0  0  0  0
   -4.4064    0.0097    0.0399 C   0  0  0  0  0  5  0  0  0  0  0  0
   -5.6204   -0.1312   -0.6628 C   0  0  0  0  0  5  0  0  0  0  0  0
   -5.9836   -1.3726   -1.2460 C   0  0  0  0  0  5  0  0  0  0  0  0
   -5.3081   -2.4807   -0.9658 N   0  0  0  0  0  4  0  0  0  0  0  0
   -4.1023    1.3632    0.3981 C   0  0  0  0  0  0  0  0  0  0  0  0
   -5.1856    2.3071    0.4581 C   0  0  0  0  0  0  0  0  0  0  0  0
   -6.3682    2.0901   -0.1091 N   0  0  0  0  0  0  0  0  0  0  0  0
   -6.5379    0.9480   -0.7805 C   0  0  0  0  0  0  0  0  0  0  0  0
   -7.6999    0.7930   -1.5538 C   0  0  0  0  0  0  0  0  0  0  0  0
   -7.9839   -0.3847   -2.2391 C   0  0  0  0  0  5  0  0  0  0  0  0
   -7.1247   -1.4581   -2.0756 C   0  0  0  0  0  5  0  0  0  0  0  0
   -2.8091    1.8836    0.5903 C   0  0  0  0  0  0  0  0  0  0  0  0
   -2.6599    3.1269    1.1991 C   0  0  0  0  0  0  0  0  0  0  0  0
   -3.7355    3.9918    1.4305 C   0  0  0  0  0  0  0  0  0  0  0  0
   -4.9824    3.5853    1.0219 C   0  0  0  0  0  0  0  0  0  0  0  0
   -1.8841   -0.3800    1.8296 O   0  0  0  0  0  0  0  0  0  0  0  0
   -1.7624    1.2217    0.0830 O   0  0  0  0  0  0  0  0  0  0  0  0
   -0.9658    0.4251    1.0132 B   0  0  0  0  0  0  0  0  0  0  0  0
    0.4791   -2.5825    0.0190 C   0  0  0  0  0  5  0  0  0  0  0  0
    0.7430   -1.3449    0.6138 C   0  0  0  0  0  5  0  0  0  0  0  0
    1.8736   -1.2030    1.4756 C   0  0  0  0  0  0  0  0  0  0  0  0
    2.5580   -2.4335    1.7910 C   0  0  0  0  0  0  0  0  0  0  0  0
    2.2035   -3.6653    1.1946 C   0  0  0  0  0  5  0  0  0  0  0  0
    1.2232   -3.7425    0.2363 C   0  0  0  0  0  5  0  0  0  0  0  0
    2.5416    0.0029    1.8897 C   0  0  0  0  0  0  0  0  0  0  0  0
    3.8264   -0.1344    2.4598 C   0  0  0  0  0  0  0  0  0  0  0  0
    4.3133   -1.4033    2.8550 C   0  0  0  0  0  0  0  0  0  0  0  0
    3.6534   -2.5159    2.5511 N   0  0  0  0  0  0  0  0  0  0  0  0
    2.1862    1.3461    1.5606 C   0  0  0  0  0  0  0  0  0  0  0  0
    3.2622    2.2863    1.3871 C   0  0  0  0  0  0  0  0  0  0  0  0
    4.4544    2.1271    1.9514 N   0  0  0  0  0  0  0  0  0  0  0  0
    4.7113    0.9718    2.5682 C   0  0  0  0  0  0  0  0  0  0  0  0
    5.9905    0.8012    3.1371 C   0  0  0  0  0  0  0  0  0  0  0  0
    6.4523   -0.4418    3.5554 C   0  0  0  0  0  0  0  0  0  0  0  0
    5.5890   -1.5232    3.4472 C   0  0  0  0  0  0  0  0  0  0  0  0
    0.8861    1.8414    1.3250 C   0  0  0  0  0  0  0  0  0  0  0  0
    0.7479    2.9402    0.4796 C   0  0  0  0  0  0  0  0  0  0  0  0
    1.8361    3.6937    0.0221 C   0  0  0  0  0  0  0  0  0  0  0  0
    3.0671    3.4244    0.5722 C   0  0  0  0  0  0  0  0  0  0  0  0
   -0.1649    1.2509    1.8929 O   0  0  0  0  0  0  0  0  0  0  0  0
   -0.0574   -0.3710    0.1729 O   0  0  0  0  0  0  0  0  0  0  0  0
   -2.7863   -5.1286    2.1246 C   0  0  0  0  0  0  0  0  0  0  0  0
   -1.4777   -5.1533    2.9157 C   0  0  0  0  0  0  0  0  0  0  0  0
   -2.8183   -6.3304    1.1726 C   0  0  0  0  0  0  0  0  0  0  0  0
   -3.9644   -5.2444    3.1061 C   0  0  0  0  0  0  0  0  0  0  0  0
   -3.5306    5.3964    1.9721 C   0  0  0  0  0  0  0  0  0  0  0  0
   -4.6036    5.6946    3.0276 C   0  0  0  0  0  0  0  0  0  0  0  0
   -2.1479    5.5859    2.6012 C   0  0  0  0  0  0  0  0  0  0  0  0
   -3.6692    6.3802    0.7997 C   0  0  0  0  0  0  0  0  0  0  0  0
   -9.2372   -0.4497   -3.0966 C   0  0  0  0  0  0  0  0  0  0  0  0
   -9.3942   -1.7985   -3.8019 C   0  0  0  0  0  0  0  0  0  0  0  0
   -9.1637    0.6496   -4.1653 C   0  0  0  0  0  0  0  0  0  0  0  0
  -10.4612   -0.2247   -2.1980 C   0  0  0  0  0  0  0  0  0  0  0  0
    1.0623   -4.9836   -0.6261 C   0  0  0  0  0  0  0  0  0  0  0  0
   -0.2305   -4.9530   -1.4462 C   0  0  0  0  0  0  0  0  0  0  0  0
    1.0945   -6.2680    0.2105 C   0  0  0  0  0  0  0  0  0  0  0  0
    2.2560   -4.9949   -1.5958 C   0  0  0  0  0  0  0  0  0  0  0  0
    1.6877    4.7801   -1.0314 C   0  0  0  0  0  0  0  0  0  0  0  0
    2.5721    4.3909   -2.2256 C   0  0  0  0  0  0  0  0  0  0  0  0
    2.1469    6.1303   -0.4674 C   0  0  0  0  0  0  0  0  0  0  0  0
    0.2474    4.9271   -1.5283 C   0  0  0  0  0  0  0  0  0  0  0  0
    7.9075   -0.6726    3.9388 C   0  0  0  0  0  0  0  0  0  0  0  0
    8.6584    0.6356    4.2028 C   0  0  0  0  0  0  0  0  0  0  0  0
    8.0344   -1.5617    5.1795 C   0  0  0  0  0  0  0  0  0  0  0  0
    8.5653   -1.3835    2.7436 C   0  0  0  0  0  0  0  0  0  0  0  0
  -11.3730   -0.2835   -2.7881 H   0  0  0  0  0  0  0  0  0  0  0  0
  -10.4278    0.7495   -1.7187 H   0  0  0  0  0  0  0  0  0  0  0  0
  -10.5021   -0.9862   -1.4220 H   0  0  0  0  0  0  0  0  0  0  0  0
  -10.2910   -1.7824   -4.4176 H   0  0  0  0  0  0  0  0  0  0  0  0
   -9.4953   -2.6072   -3.0822 H   0  0  0  0  0  0  0  0  0  0  0  0
   -8.5446   -2.0011   -4.4494 H   0  0  0  0  0  0  0  0  0  0  0  0
  -10.0472    0.6141   -4.7988 H   0  0  0  0  0  0  0  0  0  0  0  0
   -8.2850    0.5076   -4.7910 H   0  0  0  0  0  0  0  0  0  0  0  0
   -9.1061    1.6373   -3.7169 H   0  0  0  0  0  0  0  0  0  0  0  0
   -3.8551   -6.1391    3.7161 H   0  0  0  0  0  0  0  0  0  0  0  0
   -4.9054   -5.3090    2.5639 H   0  0  0  0  0  0  0  0  0  0  0  0
   -3.9930   -4.3690    3.7513 H   0  0  0  0  0  0  0  0  0  0  0  0
   -1.3082   -6.1490    3.3206 H   0  0  0  0  0  0  0  0  0  0  0  0
   -1.5166   -4.4570    3.7476 H   0  0  0  0  0  0  0  0  0  0  0  0
   -0.6362   -4.8883    2.2807 H   0  0  0  0  0  0  0  0  0  0  0  0
   -2.6432   -7.2449    1.7359 H   0  0  0  0  0  0  0  0  0  0  0  0
   -2.0507   -6.2473    0.4093 H   0  0  0  0  0  0  0  0  0  0  0  0
   -3.7824   -6.4253    0.6816 H   0  0  0  0  0  0  0  0  0  0  0  0
   -0.3707   -5.9091   -1.9468 H   0  0  0  0  0  0  0  0  0  0  0  0
   -0.1878   -4.1811   -2.2105 H   0  0  0  0  0  0  0  0  0  0  0  0
   -1.0937   -4.7636   -0.8128 H   0  0  0  0  0  0  0  0  0  0  0  0
    2.1798   -5.8426   -2.2733 H   0  0  0  0  0  0  0  0  0  0  0  0
    3.1943   -5.0680   -1.0512 H   0  0  0  0  0  0  0  0  0  0  0  0
    2.2745   -4.0806   -2.1851 H   0  0  0  0  0  0  0  0  0  0  0  0
    0.9926   -7.1326   -0.4424 H   0  0  0  0  0  0  0  0  0  0  0  0
    0.2805   -6.2839    0.9285 H   0  0  0  0  0  0  0  0  0  0  0  0
    2.0315   -6.3670    0.7504 H   0  0  0  0  0  0  0  0  0  0  0  0
   -4.3555    6.6055    3.5685 H   0  0  0  0  0  0  0  0  0  0  0  0
   -4.6694    4.8670    3.7281 H   0  0  0  0  0  0  0  0  0  0  0  0
   -5.5781    5.8345    2.5683 H   0  0  0  0  0  0  0  0  0  0  0  0
    2.0684    6.8988   -1.2337 H   0  0  0  0  0  0  0  0  0  0  0  0
    3.1787    6.0869   -0.1317 H   0  0  0  0  0  0  0  0  0  0  0  0
    1.5216    6.4178    0.3746 H   0  0  0  0  0  0  0  0  0  0  0  0
   -2.0874    6.5772    3.0461 H   0  0  0  0  0  0  0  0  0  0  0  0
   -1.3577    5.5122    1.8573 H   0  0  0  0  0  0  0  0  0  0  0  0
   -1.9718    4.8480    3.3792 H   0  0  0  0  0  0  0  0  0  0  0  0
   -3.5425    7.4016    1.1527 H   0  0  0  0  0  0  0  0  0  0  0  0
   -4.6467    6.2935    0.3324 H   0  0  0  0  0  0  0  0  0  0  0  0
   -2.9134    6.1794    0.0429 H   0  0  0  0  0  0  0  0  0  0  0  0
    2.4804    5.1300   -3.0188 H   0  0  0  0  0  0  0  0  0  0  0  0
    2.2663    3.4234   -2.6176 H   0  0  0  0  0  0  0  0  0  0  0  0
    3.6170    4.3262   -1.9350 H   0  0  0  0  0  0  0  0  0  0  0  0
    0.2107    5.6793   -2.3142 H   0  0  0  0  0  0  0  0  0  0  0  0
   -0.4143    5.2481   -0.7269 H   0  0  0  0  0  0  0  0  0  0  0  0
   -0.1228    3.9911   -1.9392 H   0  0  0  0  0  0  0  0  0  0  0  0
    8.4680   -0.7816    1.8425 H   0  0  0  0  0  0  0  0  0  0  0  0
    8.0987   -2.3483    2.5612 H   0  0  0  0  0  0  0  0  0  0  0  0
    9.6232   -1.5424    2.9409 H   0  0  0  0  0  0  0  0  0  0  0  0
    7.6001   -1.0712    6.0439 H   0  0  0  0  0  0  0  0  0  0  0  0
    9.0850   -1.7515    5.3894 H   0  0  0  0  0  0  0  0  0  0  0  0
    7.5423   -2.5206    5.0477 H   0  0  0  0  0  0  0  0  0  0  0  0
    8.1460    1.2429    4.9442 H   0  0  0  0  0  0  0  0  0  0  0  0
    8.7713    1.2140    3.2892 H   0  0  0  0  0  0  0  0  0  0  0  0
    9.6546    0.4106    4.5781 H   0  0  0  0  0  0  0  0  0  0  0  0
    6.6182    1.6762    3.1586 H   0  0  0  0  0  0  0  0  0  0  0  0
    5.8883   -2.5181    3.7358 H   0  0  0  0  0  0  0  0  0  0  0  0
    2.8288   -4.5058    1.4475 H   0  0  0  0  0  0  0  0  0  0  0  0
    3.9331    4.0334    0.3738 H   0  0  0  0  0  0  0  0  0  0  0  0
   -5.8411    4.2351    1.0506 H   0  0  0  0  0  0  0  0  0  0  0  0
   -4.4467   -4.5256   -0.0088 H   0  0  0  0  0  0  0  0  0  0  0  0
   -8.3621    1.6429   -1.5931 H   0  0  0  0  0  0  0  0  0  0  0  0
   -7.3011   -2.4128   -2.5407 H   0  0  0  0  0  0  0  0  0  0  0  0
   -0.3476   -2.5756   -0.6726 H   0  0  0  0  0  0  0  0  0  0  0  0
   -1.5004   -2.6729    2.4856 H   0  0  0  0  0  0  0  0  0  0  0  0
   -1.6638    3.4170    1.4800 H   0  0  0  0  0  0  0  0  0  0  0  0
   -0.2444    3.1610    0.1322 H   0  0  0  0  0  0  0  0  0  0  0  0
   -0.3470   -2.0788    6.9834 C   0  0  0  0  0  0  0  0  0  0  0  0
   -0.5800   -0.9305    6.2203 C   0  0  0  0  0  0  0  0  0  0  0  0
   -1.7079   -0.8826    5.3447 C   0  0  0  0  0  0  0  0  0  0  0  0
   -2.4223   -2.1281    5.2018 C   0  0  0  0  0  0  0  0  0  0  0  0
   -2.0987   -3.2724    5.9662 C   0  0  0  0  0  0  0  0  0  0  0  0
   -1.1205   -3.2386    6.9292 C   0  0  0  0  0  0  0  0  0  0  0  0
   -2.3480    0.2695    4.7657 C   0  0  0  0  0  5  0  0  0  0  0  0
   -3.6355    0.0845    4.2156 C   0  0  0  0  0  5  0  0  0  0  0  0
   -4.1518   -1.2153    3.9975 C   0  0  0  0  0  5  0  0  0  0  0  0
   -3.5189   -2.2898    4.4560 N   0  0  0  0  0  4  0  0  0  0  0  0
   -1.9621    1.6367    4.9086 C   0  0  0  0  0  0  0  0  0  0  0  0
   -3.0162    2.6159    4.9480 C   0  0  0  0  0  0  0  0  0  0  0  0
   -4.2117    2.4079    4.4067 N   0  0  0  0  0  0  0  0  0  0  0  0
   -4.4946    1.1851    3.9530 C   0  0  0  0  0  0  0  0  0  0  0  0
   -5.7766    0.9673    3.4070 C   0  0  0  0  0  0  0  0  0  0  0  0
   -6.2665   -0.3105    3.1607 C   0  0  0  0  0  5  0  0  0  0  0  0
   -5.4291   -1.3863    3.4212 C   0  0  0  0  0  5  0  0  0  0  0  0
   -0.6510    2.1296    5.0784 C   0  0  0  0  0  0  0  0  0  0  0  0
   -0.4876    3.3300    5.7666 C   0  0  0  0  0  0  0  0  0  0  0  0
   -1.5580    4.1649    6.1107 C   0  0  0  0  0  0  0  0  0  0  0  0
   -2.7947    3.8509    5.5984 C   0  0  0  0  0  0  0  0  0  0  0  0
    0.2460    0.0745    6.5229 O   0  0  0  0  0  0  0  0  0  0  0  0
    0.3856    1.4437    4.5979 O   0  0  0  0  0  0  0  0  0  0  0  0
    1.1698    0.7277    5.5822 B   0  0  0  0  0  0  0  0  0  0  0  0
    2.4433   -2.4415    5.2587 C   0  0  0  0  0  5  0  0  0  0  0  0
    2.7839   -1.1193    5.5526 C   0  0  0  0  0  5  0  0  0  0  0  0
    3.8897   -0.8499    6.4110 C   0  0  0  0  0  0  0  0  0  0  0  0
    4.4546   -2.0066    7.0673 C   0  0  0  0  0  0  0  0  0  0  0  0
    4.0280   -3.3177    6.7634 C   0  0  0  0  0  5  0  0  0  0  0  0
    3.0875   -3.5613    5.7963 C   0  0  0  0  0  5  0  0  0  0  0  0
    4.6092    0.3803    6.5949 C   0  0  0  0  0  0  0  0  0  0  0  0
    5.8264    0.3127    7.3030 C   0  0  0  0  0  0  0  0  0  0  0  0
    6.1706   -0.8449    8.0487 C   0  0  0  0  0  0  0  0  0  0  0  0
    5.4690   -1.9670    7.9308 N   0  0  0  0  0  0  0  0  0  0  0  0
    4.3280    1.6770    6.0548 C   0  0  0  0  0  0  0  0  0  0  0  0
    5.4287    2.5817    5.8614 C   0  0  0  0  0  0  0  0  0  0  0  0
    6.6112    2.4206    6.4480 N   0  0  0  0  0  0  0  0  0  0  0  0
    6.7652    1.3784    7.2673 C   0  0  0  0  0  0  0  0  0  0  0  0
    7.9346    1.3128    8.0484 C   0  0  0  0  0  0  0  0  0  0  0  0
    8.2014    0.2359    8.8817 C   0  0  0  0  0  0  0  0  0  0  0  0
    7.3178   -0.8356    8.8685 C   0  0  0  0  0  0  0  0  0  0  0  0
    3.0437    2.1912    5.7974 C   0  0  0  0  0  0  0  0  0  0  0  0
    2.9145    3.3415    5.0236 C   0  0  0  0  0  0  0  0  0  0  0  0
    4.0050    4.1446    4.6714 C   0  0  0  0  0  0  0  0  0  0  0  0
    5.2465    3.7740    5.1282 C   0  0  0  0  0  0  0  0  0  0  0  0
    1.9876    1.6258    6.3946 O   0  0  0  0  0  0  0  0  0  0  0  0
    2.0688   -0.2019    4.8847 O   0  0  0  0  0  0  0  0  0  0  0  0
   -0.9917   -4.3500    7.9579 C   0  0  0  0  0  0  0  0  0  0  0  0
    0.2973   -4.2329    8.7762 C   0  0  0  0  0  0  0  0  0  0  0  0
   -1.0483   -5.7377    7.3084 C   0  0  0  0  0  0  0  0  0  0  0  0
   -2.1900   -4.2003    8.9103 C   0  0  0  0  0  0  0  0  0  0  0  0
   -1.3844    5.3846    7.0018 C   0  0  0  0  0  0  0  0  0  0  0  0
   -2.2789    5.1889    8.2353 C   0  0  0  0  0  0  0  0  0  0  0  0
    0.0586    5.5662    7.4791 C   0  0  0  0  0  0  0  0  0  0  0  0
   -1.8107    6.6522    6.2508 C   0  0  0  0  0  0  0  0  0  0  0  0
   -7.7259   -0.5577    2.8043 C   0  0  0  0  0  0  0  0  0  0  0  0
   -7.8712   -1.6085    1.6994 C   0  0  0  0  0  0  0  0  0  0  0  0
   -8.4441    0.7181    2.3553 C   0  0  0  0  0  0  0  0  0  0  0  0
   -8.4044   -1.0785    4.0831 C   0  0  0  0  0  0  0  0  0  0  0  0
    2.8586   -4.9650    5.2650 C   0  0  0  0  0  0  0  0  0  0  0  0
    1.5470   -5.0686    4.4856 C   0  0  0  0  0  0  0  0  0  0  0  0
    2.8619   -6.0163    6.3815 C   0  0  0  0  0  0  0  0  0  0  0  0
    4.0295   -5.2540    4.3109 C   0  0  0  0  0  0  0  0  0  0  0  0
    3.8234    5.4648    3.9420 C   0  0  0  0  0  0  0  0  0  0  0  0
    4.8992    5.5973    2.8560 C   0  0  0  0  0  0  0  0  0  0  0  0
    3.9813    6.5975    4.9685 C   0  0  0  0  0  0  0  0  0  0  0  0
    2.4429    5.5898    3.2922 C   0  0  0  0  0  0  0  0  0  0  0  0
    9.4394    0.1751    9.7619 C   0  0  0  0  0  0  0  0  0  0  0  0
   10.2708    1.4587    9.6929 C   0  0  0  0  0  0  0  0  0  0  0  0
    9.0057   -0.0386   11.2182 C   0  0  0  0  0  0  0  0  0  0  0  0
   10.3146   -0.9964    9.2961 C   0  0  0  0  0  0  0  0  0  0  0  0
   -9.4653   -1.2378    3.9034 H   0  0  0  0  0  0  0  0  0  0  0  0
   -8.2946   -0.3591    4.8918 H   0  0  0  0  0  0  0  0  0  0  0  0
   -7.9622   -2.0193    4.4014 H   0  0  0  0  0  0  0  0  0  0  0  0
   -8.9258   -1.7978    1.5103 H   0  0  0  0  0  0  0  0  0  0  0  0
   -7.4057   -2.5520    1.9682 H   0  0  0  0  0  0  0  0  0  0  0  0
   -7.4203   -1.2555    0.7783 H   0  0  0  0  0  0  0  0  0  0  0  0
   -9.4439    0.4661    2.0076 H   0  0  0  0  0  0  0  0  0  0  0  0
   -7.9144    1.2037    1.5400 H   0  0  0  0  0  0  0  0  0  0  0  0
   -8.5464    1.4208    3.1784 H   0  0  0  0  0  0  0  0  0  0  0  0
   -2.1354   -4.9461    9.7005 H   0  0  0  0  0  0  0  0  0  0  0  0
   -3.1270   -4.3294    8.3743 H   0  0  0  0  0  0  0  0  0  0  0  0
   -2.1912   -3.2124    9.3657 H   0  0  0  0  0  0  0  0  0  0  0  0
    0.4121   -5.1113    9.4083 H   0  0  0  0  0  0  0  0  0  0  0  0
    0.2691   -3.3595    9.4228 H   0  0  0  0  0  0  0  0  0  0  0  0
    1.1680   -4.1551    8.1297 H   0  0  0  0  0  0  0  0  0  0  0  0
   -0.9718   -6.5046    8.0766 H   0  0  0  0  0  0  0  0  0  0  0  0
   -0.2296   -5.8721    6.6085 H   0  0  0  0  0  0  0  0  0  0  0  0
   -1.9831   -5.8899    6.7775 H   0  0  0  0  0  0  0  0  0  0  0  0
    1.3506   -6.1073    4.2272 H   0  0  0  0  0  0  0  0  0  0  0  0
    1.6010   -4.4998    3.5626 H   0  0  0  0  0  0  0  0  0  0  0  0
    0.7148   -4.6939    5.0760 H   0  0  0  0  0  0  0  0  0  0  0  0
    3.8938   -6.2245    3.8375 H   0  0  0  0  0  0  0  0  0  0  0  0
    4.9706   -5.2645    4.8567 H   0  0  0  0  0  0  0  0  0  0  0  0
    4.0788   -4.4828    3.5453 H   0  0  0  0  0  0  0  0  0  0  0  0
    2.6594   -6.9979    5.9572 H   0  0  0  0  0  0  0  0  0  0  0  0
    2.1002   -5.8020    7.1248 H   0  0  0  0  0  0  0  0  0  0  0  0
    3.8251   -6.0655    6.8809 H   0  0  0  0  0  0  0  0  0  0  0  0
   -2.1706    6.0304    8.9164 H   0  0  0  0  0  0  0  0  0  0  0  0
   -1.9963    4.2798    8.7614 H   0  0  0  0  0  0  0  0  0  0  0  0
   -3.3248    5.1079    7.9523 H   0  0  0  0  0  0  0  0  0  0  0  0
    3.8721    7.5631    4.4788 H   0  0  0  0  0  0  0  0  0  0  0  0
    4.9579    6.5581    5.4439 H   0  0  0  0  0  0  0  0  0  0  0  0
    3.2234    6.5158    5.7451 H   0  0  0  0  0  0  0  0  0  0  0  0
    0.1127    6.4204    8.1515 H   0  0  0  0  0  0  0  0  0  0  0  0
    0.7283    5.7557    6.6431 H   0  0  0  0  0  0  0  0  0  0  0  0
    0.4060    4.6889    8.0189 H   0  0  0  0  0  0  0  0  0  0  0  0
   -1.7120    7.5195    6.9004 H   0  0  0  0  0  0  0  0  0  0  0  0
   -2.8437    6.5872    5.9225 H   0  0  0  0  0  0  0  0  0  0  0  0
   -1.1797    6.8016    5.3779 H   0  0  0  0  0  0  0  0  0  0  0  0
    4.6648    6.4286    2.1944 H   0  0  0  0  0  0  0  0  0  0  0  0
    4.9506    4.6800    2.2765 H   0  0  0  0  0  0  0  0  0  0  0  0
    5.8766    5.7835    3.2921 H   0  0  0  0  0  0  0  0  0  0  0  0
    2.3988    6.5111    2.7146 H   0  0  0  0  0  0  0  0  0  0  0  0
    1.6529    5.6335    4.0387 H   0  0  0  0  0  0  0  0  0  0  0  0
    2.2525    4.7545    2.6236 H   0  0  0  0  0  0  0  0  0  0  0  0
   10.6090   -0.8546    8.2582 H   0  0  0  0  0  0  0  0  0  0  0  0
    9.7841   -1.9411    9.3736 H   0  0  0  0  0  0  0  0  0  0  0  0
   11.2139   -1.0564    9.9049 H   0  0  0  0  0  0  0  0  0  0  0  0
    8.3616    0.7766   11.5413 H   0  0  0  0  0  0  0  0  0  0  0  0
    9.8782   -0.0660   11.8671 H   0  0  0  0  0  0  0  0  0  0  0  0
    8.4625   -0.9712   11.3393 H   0  0  0  0  0  0  0  0  0  0  0  0
    9.6833    2.3214    9.9979 H   0  0  0  0  0  0  0  0  0  0  0  0
   10.6548    1.6254    8.6893 H   0  0  0  0  0  0  0  0  0  0  0  0
   11.1211    1.3751   10.3665 H   0  0  0  0  0  0  0  0  0  0  0  0
    8.6054    2.1504    7.9620 H   0  0  0  0  0  0  0  0  0  0  0  0
    7.4910   -1.7213    9.4582 H   0  0  0  0  0  0  0  0  0  0  0  0
    4.5522   -4.1048    7.2794 H   0  0  0  0  0  0  0  0  0  0  0  0
    6.1173    4.3963    5.0072 H   0  0  0  0  0  0  0  0  0  0  0  0
   -3.6460    4.5020    5.7066 H   0  0  0  0  0  0  0  0  0  0  0  0
   -2.7449   -4.1243    5.8318 H   0  0  0  0  0  0  0  0  0  0  0  0
   -6.3840    1.8450    3.2631 H   0  0  0  0  0  0  0  0  0  0  0  0
   -5.7511   -2.4044    3.2710 H   0  0  0  0  0  0  0  0  0  0  0  0
    1.6292   -2.5544    4.5616 H   0  0  0  0  0  0  0  0  0  0  0  0
    0.4804   -1.9957    7.6692 H   0  0  0  0  0  0  0  0  0  0  0  0
    0.5093    3.5727    6.0854 H   0  0  0  0  0  0  0  0  0  0  0  0
    1.9226    3.6102    4.7089 H   0  0  0  0  0  0  0  0  0  0  0  0
  1135  1  0  0  0  0
  2  1  1  0  0  0  0
  2 22  1  0  0  0  0
  3  7  1  0  0  0  0
  3  2  2  0  0  0  0
  4  3  1  0  0  0  0
  5  4  2  0  0  0  0
  5  6  1  0  0  0  0
  6 48  1  0  0  0  0
  6  1  3  0  0  0  0
  7 11  1  0  0  0  0
  7  8  2  0  0  0  0
  9 17  1  0  0  0  0
  9  8  1  0  0  0  0
 10  4  1  0  0  0  0
 10  9  2  0  0  0  0
 11 18  2  0  0  0  0
 11 12  1  0  0  0  0
 12 21  2  0  0  0  0
 13 12  1  0  0  0  0
 14 13  1  0  0  0  0
 14  8  1  0  0  0  0
 15 16  1  0  0  0  0
 15 14  2  0  0  0  0
 16 17  2  0  0  0  0
 18 19  1  0  0  0  0
 19 20  2  0  0  0  0
 19136  1  0  0  0  0
 21 20  1  0  0  0  0
 23 18  1  0  0  0  0
 24 23  1  0  0  0  0
 24 22  1  0  0  0  0
 24 46  1  0  0  0  0
 25 26  2  0  0  0  0
 25134  1  0  0  0  0
 27 26  1  0  0  0  0
 27 31  2  0  0  0  0
 28 34  2  0  0  0  0
 28 27  1  0  0  0  0
 29 28  1  0  0  0  0
 29128  1  0  0  0  0
 29 30  2  0  0  0  0
 30 25  1  0  0  0  0
 30 60  1  0  0  0  0
 31 35  1  0  0  0  0
 32 31  1  0  0  0  0
 32 38  1  0  0  0  0
 33 32  2  0  0  0  0
 33 41  1  0  0  0  0
 34 33  1  0  0  0  0
 35 36  2  0  0  0  0
 35 42  1  0  0  0  0
 36 37  1  0  0  0  0
 38 37  1  0  0  0  0
 38 39  2  0  0  0  0
 39126  1  0  0  0  0
 40 39  1  0  0  0  0
 41127  1  0  0  0  0
 41 40  2  0  0  0  0
 42 46  1  0  0  0  0
 43 42  2  0  0  0  0
 43137  1  0  0  0  0
 44 45  2  0  0  0  0
 44 43  1  0  0  0  0
 45129  1  0  0  0  0
 45 36  1  0  0  0  0
 47 26  1  0  0  0  0
 47 24  1  0  0  0  0
 48 49  1  0  0  0  0
 49 84  1  0  0  0  0
 49 85  1  0  0  0  0
 49 86  1  0  0  0  0
 50 87  1  0  0  0  0
 50 48  1  0  0  0  0
 50 88  1  0  0  0  0
 51 83  1  0  0  0  0
 51 48  1  0  0  0  0
 52 20  1  0  0  0  0
 52 53  1  0  0  0  0
 52 54  1  0  0  0  0
 53100  1  0  0  0  0
 54107  1  0  0  0  0
 55 52  1  0  0  0  0
 56 16  1  0  0  0  0
 56 59  1  0  0  0  0
 57 56  1  0  0  0  0
 58 78  1  0  0  0  0
 58 56  1  0  0  0  0
 58 80  1  0  0  0  0
 59 72  1  0  0  0  0
 59 74  1  0  0  0  0
 59 73  1  0  0  0  0
 60 63  1  0  0  0  0
 60 62  1  0  0  0  0
 61 90  1  0  0  0  0
 61 60  1  0  0  0  0
 62 97  1  0  0  0  0
 62 96  1  0  0  0  0
 62 98  1  0  0  0  0
 63 94  1  0  0  0  0
 64 66  1  0  0  0  0
 64 44  1  0  0  0  0
 65113  1  0  0  0  0
 65 64  1  0  0  0  0
 66103  1  0  0  0  0
 66104  1  0  0  0  0
 67 64  1  0  0  0  0
 67115  1  0  0  0  0
 68 40  1  0  0  0  0
 68 70  1  0  0  0  0
 69123  1  0  0  0  0
 69 68  1  0  0  0  0
 70121  1  0  0  0  0
 70122  1  0  0  0  0
 70120  1  0  0  0  0
 71119  1  0  0  0  0
 71118  1  0  0  0  0
 71 68  1  0  0  0  0
 75 57  1  0  0  0  0
 76 57  1  0  0  0  0
 77 57  1  0  0  0  0
 79 58  1  0  0  0  0
 81 51  1  0  0  0  0
 82 51  1  0  0  0  0
 89 50  1  0  0  0  0
 91 61  1  0  0  0  0
 92 61  1  0  0  0  0
 93 63  1  0  0  0  0
 95 63  1  0  0  0  0
 99 53  1  0  0  0  0
101 53  1  0  0  0  0
102 66  1  0  0  0  0
105 54  1  0  0  0  0
106 54  1  0  0  0  0
108 55  1  0  0  0  0
109 55  1  0  0  0  0
110 55  1  0  0  0  0
111 65  1  0  0  0  0
112 65  1  0  0  0  0
114 67  1  0  0  0  0
116 67  1  0  0  0  0
117 71  1  0  0  0  0
124 69  1  0  0  0  0
125 69  1  0  0  0  0
130 21  1  0  0  0  0
131  5  1  0  0  0  0
132 15  1  0  0  0  0
133 17  1  0  0  0  0
138272  1  0  0  0  0
139138  1  0  0  0  0
139159  1  0  0  0  0
140144  1  0  0  0  0
140139  2  0  0  0  0
141140  1  0  0  0  0
142141  2  0  0  0  0
142143  1  0  0  0  0
143185  1  0  0  0  0
143138  3  0  0  0  0
144148  1  0  0  0  0
144145  2  0  0  0  0
146154  1  0  0  0  0
146145  1  0  0  0  0
147141  1  0  0  0  0
147146  2  0  0  0  0
148155  2  0  0  0  0
148149  1  0  0  0  0
149158  2  0  0  0  0
150149  1  0  0  0  0
151150  1  0  0  0  0
151145  1  0  0  0  0
152153  1  0  0  0  0
152151  2  0  0  0  0
153154  2  0  0  0  0
155156  1  0  0  0  0
156157  2  0  0  0  0
156273  1  0  0  0  0
158157  1  0  0  0  0
160155  1  0  0  0  0
161160  1  0  0  0  0
161159  1  0  0  0  0
161183  1  0  0  0  0
162163  2  0  0  0  0
162271  1  0  0  0  0
164163  1  0  0  0  0
164168  2  0  0  0  0
165171  2  0  0  0  0
165164  1  0  0  0  0
166165  1  0  0  0  0
166265  1  0  0  0  0
166167  2  0  0  0  0
167162  1  0  0  0  0
167197  1  0  0  0  0
168172  1  0  0  0  0
169168  1  0  0  0  0
169175  1  0  0  0  0
170169  2  0  0  0  0
170178  1  0  0  0  0
171170  1  0  0  0  0
172173  2  0  0  0  0
172179  1  0  0  0  0
173174  1  0  0  0  0
175174  1  0  0  0  0
175176  2  0  0  0  0
176263  1  0  0  0  0
177176  1  0  0  0  0
178264  1  0  0  0  0
178177  2  0  0  0  0
179183  1  0  0  0  0
180179  2  0  0  0  0
180274  1  0  0  0  0
181182  2  0  0  0  0
181180  1  0  0  0  0
182266  1  0  0  0  0
182173  1  0  0  0  0
184163  1  0  0  0  0
184161  1  0  0  0  0
185186  1  0  0  0  0
186221  1  0  0  0  0
186222  1  0  0  0  0
186223  1  0  0  0  0
187224  1  0  0  0  0
187185  1  0  0  0  0
187225  1  0  0  0  0
188220  1  0  0  0  0
188185  1  0  0  0  0
189157  1  0  0  0  0
189190  1  0  0  0  0
189191  1  0  0  0  0
190237  1  0  0  0  0
191244  1  0  0  0  0
192189  1  0  0  0  0
193153  1  0  0  0  0
193196  1  0  0  0  0
194193  1  0  0  0  0
195215  1  0  0  0  0
195193  1  0  0  0  0
195217  1  0  0  0  0
196209  1  0  0  0  0
196211  1  0  0  0  0
196210  1  0  0  0  0
197200  1  0  0  0  0
197199  1  0  0  0  0
198227  1  0  0  0  0
198197  1  0  0  0  0
199234  1  0  0  0  0
199233  1  0  0  0  0
199235  1  0  0  0  0
200231  1  0  0  0  0
201203  1  0  0  0  0
201181  1  0  0  0  0
202250  1  0  0  0  0
202201  1  0  0  0  0
203240  1  0  0  0  0
203241  1  0  0  0  0
204201  1  0  0  0  0
204252  1  0  0  0  0
205177  1  0  0  0  0
205207  1  0  0  0  0
206260  1  0  0  0  0
206205  1  0  0  0  0
207258  1  0  0  0  0
207259  1  0  0  0  0
207257  1  0  0  0  0
208256  1  0  0  0  0
208255  1  0  0  0  0
208205  1  0  0  0  0
212194  1  0  0  0  0
213194  1  0  0  0  0
214194  1  0  0  0  0
216195  1  0  0  0  0
218188  1  0  0  0  0
219188  1  0  0  0  0
226187  1  0  0  0  0
228198  1  0  0  0  0
229198  1  0  0  0  0
230200  1  0  0  0  0
232200  1  0  0  0  0
236190  1  0  0  0  0
238190  1  0  0  0  0
239203  1  0  0  0  0
242191  1  0  0  0  0
243191  1  0  0  0  0
245192  1  0  0  0  0
246192  1  0  0  0  0
247192  1  0  0  0  0
248202  1  0  0  0  0
249202  1  0  0  0  0
251204  1  0  0  0  0
253204  1  0  0  0  0
254208  1  0  0  0  0
261206  1  0  0  0  0
262206  1  0  0  0  0
267158  1  0  0  0  0
268142  1  0  0  0  0
269152  1  0  0  0  0
270154  1  0  0  0  0
M  END
