 energy: -278.761248196127 gnorm: 0.000226496457 xtb: 6.7.1 (edcfbbe)
          03132511213D

 95106  0     0  0            999 V2000
    1.4504    3.5679    0.1454 C   0  0  0  0  0  0  0  0  0  0  0  0
    1.6433    2.1820    0.2534 C   0  0  0  0  0  0  0  0  0  0  0  0
    2.7064    1.5820   -0.4959 C   0  0  0  0  0  0  0  0  0  0  0  0
    3.3720    2.4117   -1.4754 C   0  0  0  0  0  0  0  0  0  0  0  0
    3.0140    3.7731   -1.6622 C   0  0  0  0  0  0  0  0  0  0  0  0
    2.1161    4.3190   -0.8074 C   0  0  0  0  0  0  0  0  0  0  0  0
    3.3130    0.3013   -0.2573 C   0  0  0  0  0  0  0  0  0  0  0  0
    4.5486    0.0428   -0.8949 C   0  0  0  0  0  0  0  0  0  0  0  0
    4.9956    0.8742   -1.9595 C   0  0  0  0  0  0  0  0  0  0  0  0
    4.3847    2.0150   -2.2351 N   0  0  0  0  0  0  0  0  0  0  0  0
    2.9120   -0.6924    0.6981 C   0  0  0  0  0  0  0  0  0  0  0  0
    3.9734   -1.4847    1.2732 C   0  0  0  0  0  0  0  0  0  0  0  0
    5.1451   -1.6568    0.6872 N   0  0  0  0  0  0  0  0  0  0  0  0
    5.3916   -1.0195   -0.4530 C   0  0  0  0  0  0  0  0  0  0  0  0
    6.5677   -1.3243   -1.1747 C   0  0  0  0  0  0  0  0  0  0  0  0
    6.8798   -0.5757   -2.2846 C   0  0  0  0  0  0  0  0  0  0  0  0
    6.1520    0.5105   -2.6956 C   0  0  0  0  0  0  0  0  0  0  0  0
    1.5897   -1.0109    1.0904 C   0  0  0  0  0  0  0  0  0  0  0  0
    1.4138   -1.7409    2.2702 C   0  0  0  0  0  0  0  0  0  0  0  0
    2.5009   -2.1939    3.0064 C   0  0  0  0  0  0  0  0  0  0  0  0
    3.7633   -2.1560    2.5089 C   0  0  0  0  0  0  0  0  0  0  0  0
    0.8273    1.5436    1.0853 O   0  0  0  0  0  0  0  0  0  0  0  0
    0.5446   -0.6873    0.3288 O   0  0  0  0  0  0  0  0  0  0  0  0
   -1.9199   -1.5417    2.5631 C   0  0  0  0  0  0  0  0  0  0  0  0
   -2.0154   -0.6954    1.4475 C   0  0  0  0  0  0  0  0  0  0  0  0
   -2.9068   -1.0630    0.3882 C   0  0  0  0  0  0  0  0  0  0  0  0
   -3.4854   -2.3871    0.4440 C   0  0  0  0  0  0  0  0  0  0  0  0
   -3.2143   -3.2717    1.5211 C   0  0  0  0  0  0  0  0  0  0  0  0
   -2.4978   -2.7990    2.5690 C   0  0  0  0  0  0  0  0  0  0  0  0
   -3.4390   -0.1994   -0.6297 C   0  0  0  0  0  0  0  0  0  0  0  0
   -4.5424   -0.6797   -1.3726 C   0  0  0  0  0  0  0  0  0  0  0  0
   -4.8917   -2.0583   -1.3306 C   0  0  0  0  0  0  0  0  0  0  0  0
   -4.3400   -2.8736   -0.4465 N   0  0  0  0  0  0  0  0  0  0  0  0
   -3.1069    1.1762   -0.8718 C   0  0  0  0  0  0  0  0  0  0  0  0
   -4.1758    2.0091   -1.3704 C   0  0  0  0  0  0  0  0  0  0  0  0
   -5.2304    1.5281   -2.0047 N   0  0  0  0  0  0  0  0  0  0  0  0
   -5.3546    0.2111   -2.1350 C   0  0  0  0  0  0  0  0  0  0  0  0
   -6.3821   -0.3084   -2.9542 C   0  0  0  0  0  0  0  0  0  0  0  0
   -6.5845   -1.6678   -2.9857 C   0  0  0  0  0  0  0  0  0  0  0  0
   -5.8932   -2.5554   -2.2031 C   0  0  0  0  0  0  0  0  0  0  0  0
   -1.8364    1.7832   -0.7268 C   0  0  0  0  0  0  0  0  0  0  0  0
   -1.7802    3.1790   -0.6618 C   0  0  0  0  0  0  0  0  0  0  0  0
   -2.9249    3.9539   -0.7969 C   0  0  0  0  0  0  0  0  0  0  0  0
   -4.0988    3.4212   -1.2227 C   0  0  0  0  0  0  0  0  0  0  0  0
   -1.2809    0.4108    1.4918 O   0  0  0  0  0  0  0  0  0  0  0  0
   -0.7186    1.0570   -0.7210 O   0  0  0  0  0  0  0  0  0  0  0  0
   -0.1569    0.5786    0.5418 B   0  0  0  0  0  0  0  0  0  0  0  0
    1.6244    6.0904   -1.0380 S   0  0  0  0  0  0  0  0  0  0  0  0
    1.1933    6.2613    0.5381 F   0  0  0  0  0  0  0  0  0  0  0  0
    3.1373    6.6516   -0.6707 F   0  0  0  0  0  0  0  0  0  0  0  0
    1.1403    7.6006   -1.2596 F   0  0  0  0  0  0  0  0  0  0  0  0
    2.0569    6.0805   -2.6377 F   0  0  0  0  0  0  0  0  0  0  0  0
    0.1200    5.5618   -1.4885 F   0  0  0  0  0  0  0  0  0  0  0  0
    2.2510   -2.7373    4.7735 S   0  0  0  0  0  0  0  0  0  0  0  0
    3.8029   -3.3050    4.9171 F   0  0  0  0  0  0  0  0  0  0  0  0
    2.8014   -1.2477    5.2670 F   0  0  0  0  0  0  0  0  0  0  0  0
    2.0558   -3.1228    6.3210 F   0  0  0  0  0  0  0  0  0  0  0  0
    0.7162   -2.1341    4.8185 F   0  0  0  0  0  0  0  0  0  0  0  0
    1.7843   -4.2557    4.3776 F   0  0  0  0  0  0  0  0  0  0  0  0
    8.3937   -1.0346   -3.2520 S   0  0  0  0  0  0  0  0  0  0  0  0
    7.5882   -0.8649   -4.6845 F   0  0  0  0  0  0  0  0  0  0  0  0
    7.9909   -2.6366   -3.2132 F   0  0  0  0  0  0  0  0  0  0  0  0
    9.6977   -1.4376   -4.0942 F   0  0  0  0  0  0  0  0  0  0  0  0
    9.2861   -1.2319   -1.8773 F   0  0  0  0  0  0  0  0  0  0  0  0
    8.8832    0.5390   -3.3482 F   0  0  0  0  0  0  0  0  0  0  0  0
   -2.1223   -3.9378    3.9816 S   0  0  0  0  0  0  0  0  0  0  0  0
   -2.3158   -5.2892    3.0420 F   0  0  0  0  0  0  0  0  0  0  0  0
   -3.7130   -4.0613    4.4216 F   0  0  0  0  0  0  0  0  0  0  0  0
   -1.7350   -4.9244    5.1820 F   0  0  0  0  0  0  0  0  0  0  0  0
   -1.9398   -2.6958    5.0416 F   0  0  0  0  0  0  0  0  0  0  0  0
   -0.5309   -3.9020    3.5219 F   0  0  0  0  0  0  0  0  0  0  0  0
   -2.8969    5.7372   -0.2502 S   0  0  0  0  0  0  0  0  0  0  0  0
   -4.4037    6.0484   -0.8698 F   0  0  0  0  0  0  0  0  0  0  0  0
   -3.6286    5.2715    1.1684 F   0  0  0  0  0  0  0  0  0  0  0  0
   -2.9035    7.2468    0.3001 F   0  0  0  0  0  0  0  0  0  0  0  0
   -1.4374    5.5614    0.4977 F   0  0  0  0  0  0  0  0  0  0  0  0
   -2.2591    6.2932   -1.6517 F   0  0  0  0  0  0  0  0  0  0  0  0
   -7.8952   -2.3306   -4.1175 S   0  0  0  0  0  0  0  0  0  0  0  0
   -7.3761   -1.3707   -5.3583 F   0  0  0  0  0  0  0  0  0  0  0  0
   -8.9646   -1.1574   -3.6650 F   0  0  0  0  0  0  0  0  0  0  0  0
   -9.0219   -2.9047   -5.1039 F   0  0  0  0  0  0  0  0  0  0  0  0
   -8.4889   -3.3292   -2.9446 F   0  0  0  0  0  0  0  0  0  0  0  0
   -6.9004   -3.5432   -4.6371 F   0  0  0  0  0  0  0  0  0  0  0  0
   -3.6420   -4.2580    1.4896 H   0  0  0  0  0  0  0  0  0  0  0  0
   -6.1040   -3.6121   -2.2138 H   0  0  0  0  0  0  0  0  0  0  0  0
   -6.9898    0.3699   -3.5304 H   0  0  0  0  0  0  0  0  0  0  0  0
   -1.3609   -1.1911    3.4169 H   0  0  0  0  0  0  0  0  0  0  0  0
   -0.8279    3.6486   -0.5021 H   0  0  0  0  0  0  0  0  0  0  0  0
    6.4451    1.1078   -3.5433 H   0  0  0  0  0  0  0  0  0  0  0  0
    0.4140   -1.9466    2.6039 H   0  0  0  0  0  0  0  0  0  0  0  0
    7.1987   -2.1300   -0.8372 H   0  0  0  0  0  0  0  0  0  0  0  0
    3.5168    4.3305   -2.4325 H   0  0  0  0  0  0  0  0  0  0  0  0
    4.6105   -2.6163    2.9856 H   0  0  0  0  0  0  0  0  0  0  0  0
   -4.9681    4.0044   -1.4698 H   0  0  0  0  0  0  0  0  0  0  0  0
    0.7469    4.0341    0.8178 H   0  0  0  0  0  0  0  0  0  0  0  0
  1  2  2  0  0  0  0
  1 95  1  0  0  0  0
  2  3  1  0  0  0  0
  3  4  2  0  0  0  0
  3  7  1  0  0  0  0
  4  5  1  0  0  0  0
  5  6  2  0  0  0  0
  5 92  1  0  0  0  0
  6 48  1  0  0  0  0
  6  1  1  0  0  0  0
  7 11  2  0  0  0  0
  8  7  1  0  0  0  0
  8  9  1  0  0  0  0
  9 10  2  0  0  0  0
 10  4  1  0  0  0  0
 11 12  1  0  0  0  0
 11 18  1  0  0  0  0
 12 13  2  0  0  0  0
 13 14  1  0  0  0  0
 14  8  1  0  0  0  0
 14 15  2  0  0  0  0
 15 16  1  0  0  0  0
 15 91  1  0  0  0  0
 16 60  1  0  0  0  0
 16 17  2  0  0  0  0
 17  9  1  0  0  0  0
 17 89  1  0  0  0  0
 18 19  3  0  0  0  0
 19 20  1  0  0  0  0
 19 90  1  0  0  0  0
 20 54  1  0  0  0  0
 20 21  2  0  0  0  0
 21 12  1  0  0  0  0
 21 93  1  0  0  0  0
 22  2  1  0  0  0  0
 23 18  1  0  0  0  0
 24 25  2  0  0  0  0
 24 87  1  0  0  0  0
 25 26  1  0  0  0  0
 25 45  1  0  0  0  0
 26 27  2  0  0  0  0
 26 30  1  0  0  0  0
 27 28  1  0  0  0  0
 28 29  2  0  0  0  0
 28 84  1  0  0  0  0
 29 66  1  0  0  0  0
 29 24  1  0  0  0  0
 30 34  2  0  0  0  0
 31 30  1  0  0  0  0
 31 32  1  0  0  0  0
 32 33  2  0  0  0  0
 33 27  1  0  0  0  0
 34 35  1  0  0  0  0
 34 41  1  0  0  0  0
 35 36  2  0  0  0  0
 36 37  1  0  0  0  0
 37 31  1  0  0  0  0
 37 38  2  0  0  0  0
 38 39  1  0  0  0  0
 38 86  1  0  0  0  0
 39 78  1  0  0  0  0
 39 40  2  0  0  0  0
 40 32  1  0  0  0  0
 40 85  1  0  0  0  0
 41 42  2  0  0  0  0
 41 46  1  0  0  0  0
 42 43  1  0  0  0  0
 42 88  1  0  0  0  0
 43 72  1  0  0  0  0
 43 44  2  0  0  0  0
 44 35  1  0  0  0  0
 44 94  1  0  0  0  0
 47 46  1  0  0  0  0
 47 22  1  0  0  0  0
 47 45  1  0  0  0  0
 47 23  1  0  0  0  0
 48 49  1  0  0  0  0
 48 50  1  0  0  0  0
 48 51  1  0  0  0  0
 48 52  1  0  0  0  0
 48 53  1  0  0  0  0
 54 55  1  0  0  0  0
 54 56  1  0  0  0  0
 54 57  1  0  0  0  0
 54 58  1  0  0  0  0
 54 59  1  0  0  0  0
 60 61  1  0  0  0  0
 60 62  1  0  0  0  0
 60 63  1  0  0  0  0
 60 64  1  0  0  0  0
 60 65  1  0  0  0  0
 66 67  1  0  0  0  0
 66 68  1  0  0  0  0
 66 69  1  0  0  0  0
 66 70  1  0  0  0  0
 66 71  1  0  0  0  0
 72 73  1  0  0  0  0
 72 74  1  0  0  0  0
 72 75  1  0  0  0  0
 72 76  1  0  0  0  0
 72 77  1  0  0  0  0
 78 79  1  0  0  0  0
 78 80  1  0  0  0  0
 78 81  1  0  0  0  0
 78 82  1  0  0  0  0
 78 83  1  0  0  0  0
M  CHG  1  13   1
M  CHG  1  47  -1
M  END
