 energy: -21.816073739239 gnorm: 0.000673450693 xtb: 6.7.1 (edcfbbe)
          03042512333D

116124  0     0  0            999 V2000
   -1.7476    1.9504   -1.7991 C   0  0  0  0  0  0  0  0  0  0  0  0
   -1.6627    0.8505   -0.9540 C   0  0  0  0  0  0  0  0  0  0  0  0
   -0.9195    0.9863    0.2702 C   0  0  0  0  0  0  0  0  0  0  0  0
   -0.0660    2.1142    0.4355 C   0  0  0  0  0  0  0  0  0  0  0  0
   -0.1840    3.1797   -0.4703 C   0  0  0  0  0  0  0  0  0  0  0  0
   -1.0275    3.1063   -1.5421 C   0  0  0  0  0  0  0  0  0  0  0  0
   -0.9095   -0.0084    1.2980 C   0  0  0  0  0  0  0  0  0  0  0  0
    0.1715    0.0129    2.1828 C   0  0  0  0  0  0  0  0  0  0  0  0
    1.0531    1.1330    2.1928 C   0  0  0  0  0  0  0  0  0  0  0  0
    0.8831    2.2015    1.3921 N   0  0  0  0  0  0  0  0  0  0  0  0
   -1.8984   -1.0171    1.5295 C   0  0  0  0  0  0  0  0  0  0  0  0
   -1.5195   -2.1479    2.3118 C   0  0  0  0  0  0  0  0  0  0  0  0
   -0.3954   -2.1853    3.0635 N   0  0  0  0  0  0  0  0  0  0  0  0
    0.3724   -1.0785    3.0786 C   0  0  0  0  0  0  0  0  0  0  0  0
    1.4488   -1.0049    3.9698 C   0  0  0  0  0  0  0  0  0  0  0  0
    2.2979    0.0777    3.9718 C   0  0  0  0  0  0  0  0  0  0  0  0
    2.1116    1.1325    3.1073 C   0  0  0  0  0  0  0  0  0  0  0  0
   -3.2773   -0.8715    1.1443 C   0  0  0  0  0  0  0  0  0  0  0  0
   -4.1020   -1.9832    1.2450 C   0  0  0  0  0  0  0  0  0  0  0  0
   -3.6572   -3.1575    1.8282 C   0  0  0  0  0  0  0  0  0  0  0  0
   -2.4062   -3.2378    2.3791 C   0  0  0  0  0  0  0  0  0  0  0  0
   -3.7428    0.3931    0.7950 O   0  0  0  0  0  0  0  0  0  0  0  0
   -2.1885   -0.3973   -1.2750 O   0  0  0  0  0  0  0  0  0  0  0  0
   -1.1780    4.5303   -2.6478 S   0  0  0  0  0  0  0  0  0  0  0  0
   -4.7588   -4.5905    1.8890 S   0  0  0  0  0  0  0  0  0  0  0  0
    0.3939    4.0740   -0.3139 H   0  0  0  0  0  0  0  0  0  0  0  0
   -2.3520    1.9121   -2.6860 H   0  0  0  0  0  0  0  0  0  0  0  0
    2.7818    1.9734    3.1291 H   0  0  0  0  0  0  0  0  0  0  0  0
    1.6191   -1.8078    4.6649 H   0  0  0  0  0  0  0  0  0  0  0  0
   -2.0962   -4.1329    2.8882 H   0  0  0  0  0  0  0  0  0  0  0  0
   -5.1118   -1.9548    0.8798 H   0  0  0  0  0  0  0  0  0  0  0  0
   -0.3042    5.5019   -1.8817 O   0  0  0  0  0  0  0  0  0  0  0  0
   -2.7116    5.0058   -2.1455 O   0  0  0  0  0  0  0  0  0  0  0  0
   -2.7039    5.5538   -0.8709 C   0  0  0  0  0  0  0  0  0  0  0  0
    3.7017    0.1366    5.1062 S   0  0  0  0  0  0  0  0  0  0  0  0
    3.4927   -1.1814    5.8175 O   0  0  0  0  0  0  0  0  0  0  0  0
    4.8932   -0.2870    4.0002 O   0  0  0  0  0  0  0  0  0  0  0  0
    4.7497   -1.5861    3.5312 C   0  0  0  0  0  0  0  0  0  0  0  0
   -5.7939   -4.1234    0.8852 O   0  0  0  0  0  0  0  0  0  0  0  0
   -3.8123   -5.6053    0.9403 O   0  0  0  0  0  0  0  0  0  0  0  0
   -3.7489   -5.1815   -0.3803 C   0  0  0  0  0  0  0  0  0  0  0  0
   -5.1209    0.4718    0.5227 C   0  0  0  0  0  0  0  0  0  0  0  0
   -2.9157   -0.4523   -2.4768 C   0  0  0  0  0  0  0  0  0  0  0  0
   -3.2052   -5.9281   -0.9658 H   0  0  0  0  0  0  0  0  0  0  0  0
   -3.2313   -4.2199   -0.4360 H   0  0  0  0  0  0  0  0  0  0  0  0
   -4.7695   -5.0786   -0.7631 H   0  0  0  0  0  0  0  0  0  0  0  0
    5.6326   -1.8462    2.9409 H   0  0  0  0  0  0  0  0  0  0  0  0
    3.8567   -1.6573    2.9048 H   0  0  0  0  0  0  0  0  0  0  0  0
    4.6632   -2.2634    4.3870 H   0  0  0  0  0  0  0  0  0  0  0  0
   -3.2998   -1.4657   -2.5982 H   0  0  0  0  0  0  0  0  0  0  0  0
   -2.2609   -0.2169   -3.3167 H   0  0  0  0  0  0  0  0  0  0  0  0
   -3.7552    0.2423   -2.4322 H   0  0  0  0  0  0  0  0  0  0  0  0
   -5.3671    1.5107    0.2992 H   0  0  0  0  0  0  0  0  0  0  0  0
   -5.6916    0.1534    1.3958 H   0  0  0  0  0  0  0  0  0  0  0  0
   -5.3618   -0.1463   -0.3428 H   0  0  0  0  0  0  0  0  0  0  0  0
   -3.7041    5.9277   -0.6355 H   0  0  0  0  0  0  0  0  0  0  0  0
   -1.9779    6.3730   -0.8433 H   0  0  0  0  0  0  0  0  0  0  0  0
   -2.4191    4.7838   -0.1503 H   0  0  0  0  0  0  0  0  0  0  0  0
   -2.8911    1.1646    3.8343 C   0  0  0  0  0  0  0  0  0  0  0  0
   -2.3798    0.5818    4.9845 C   0  0  0  0  0  0  0  0  0  0  0  0
   -1.3106    1.2554    5.6693 C   0  0  0  0  0  0  0  0  0  0  0  0
   -0.6274    2.3210    5.0163 C   0  0  0  0  0  0  0  0  0  0  0  0
   -1.1954    2.8545    3.8468 C   0  0  0  0  0  0  0  0  0  0  0  0
   -2.3136    2.2981    3.2905 C   0  0  0  0  0  0  0  0  0  0  0  0
   -0.8087    0.8229    6.9354 C   0  0  0  0  0  0  0  0  0  0  0  0
    0.4986    1.1978    7.2537 C   0  0  0  0  0  0  0  0  0  0  0  0
    1.1548    2.2005    6.4812 C   0  0  0  0  0  0  0  0  0  0  0  0
    0.5674    2.8046    5.4286 N   0  0  0  0  0  0  0  0  0  0  0  0
   -1.5024    0.0393    7.9116 C   0  0  0  0  0  0  0  0  0  0  0  0
   -0.7195   -0.6522    8.8816 C   0  0  0  0  0  0  0  0  0  0  0  0
    0.5931   -0.4018    9.0889 N   0  0  0  0  0  0  0  0  0  0  0  0
    1.1560    0.5786    8.3566 C   0  0  0  0  0  0  0  0  0  0  0  0
    2.4556    0.9946    8.6600 C   0  0  0  0  0  0  0  0  0  0  0  0
    3.0801    1.9792    7.9304 C   0  0  0  0  0  0  0  0  0  0  0  0
    2.4491    2.5800    6.8610 C   0  0  0  0  0  0  0  0  0  0  0  0
   -2.9357    0.0214    8.0329 C   0  0  0  0  0  0  0  0  0  0  0  0
   -3.5046   -0.9239    8.8746 C   0  0  0  0  0  0  0  0  0  0  0  0
   -2.7210   -1.7399    9.6727 C   0  0  0  0  0  0  0  0  0  0  0  0
   -1.3611   -1.5890    9.7104 C   0  0  0  0  0  0  0  0  0  0  0  0
   -3.6764    0.9944    7.3688 O   0  0  0  0  0  0  0  0  0  0  0  0
   -2.7957   -0.6607    5.4523 O   0  0  0  0  0  0  0  0  0  0  0  0
   -3.0492    3.0032    1.7976 S   0  0  0  0  0  0  0  0  0  0  0  0
   -3.5146   -3.0138   10.6819 S   0  0  0  0  0  0  0  0  0  0  0  0
   -0.7323    3.6992    3.3682 H   0  0  0  0  0  0  0  0  0  0  0  0
   -3.7146    0.7163    3.3114 H   0  0  0  0  0  0  0  0  0  0  0  0
    2.9555    3.3421    6.2965 H   0  0  0  0  0  0  0  0  0  0  0  0
    2.9771    0.5409    9.4844 H   0  0  0  0  0  0  0  0  0  0  0  0
   -0.7684   -2.1907   10.3763 H   0  0  0  0  0  0  0  0  0  0  0  0
   -4.5705   -1.0484    8.9231 H   0  0  0  0  0  0  0  0  0  0  0  0
   -2.3453    4.3407    1.7931 O   0  0  0  0  0  0  0  0  0  0  0  0
   -4.5322    3.4263    2.4604 O   0  0  0  0  0  0  0  0  0  0  0  0
   -4.4033    4.3722    3.4697 C   0  0  0  0  0  0  0  0  0  0  0  0
    4.7614    2.4701    8.3850 S   0  0  0  0  0  0  0  0  0  0  0  0
    4.9509    1.5273    9.5562 O   0  0  0  0  0  0  0  0  0  0  0  0
    5.5278    1.6208    7.1489 O   0  0  0  0  0  0  0  0  0  0  0  0
    5.6860    0.2724    7.4473 C   0  0  0  0  0  0  0  0  0  0  0  0
   -4.8236   -3.1197    9.9263 O   0  0  0  0  0  0  0  0  0  0  0  0
   -2.6655   -4.3182   10.0484 O   0  0  0  0  0  0  0  0  0  0  0  0
   -2.9778   -4.5517    8.7156 C   0  0  0  0  0  0  0  0  0  0  0  0
   -5.0637    0.9475    7.5934 C   0  0  0  0  0  0  0  0  0  0  0  0
   -3.8977   -1.2120    4.7810 C   0  0  0  0  0  0  0  0  0  0  0  0
   -2.4710   -5.4639    8.3885 H   0  0  0  0  0  0  0  0  0  0  0  0
   -2.6484   -3.7075    8.1034 H   0  0  0  0  0  0  0  0  0  0  0  0
   -4.0620   -4.6757    8.6275 H   0  0  0  0  0  0  0  0  0  0  0  0
    6.2308   -0.2096    6.6303 H   0  0  0  0  0  0  0  0  0  0  0  0
    4.7024   -0.1941    7.5607 H   0  0  0  0  0  0  0  0  0  0  0  0
    6.2474    0.1836    8.3826 H   0  0  0  0  0  0  0  0  0  0  0  0
   -4.1627   -2.1525    5.2650 H   0  0  0  0  0  0  0  0  0  0  0  0
   -3.6236   -1.4066    3.7461 H   0  0  0  0  0  0  0  0  0  0  0  0
   -4.7452   -0.5279    4.8344 H   0  0  0  0  0  0  0  0  0  0  0  0
   -5.5290    1.7590    7.0330 H   0  0  0  0  0  0  0  0  0  0  0  0
   -5.2707    1.0833    8.6557 H   0  0  0  0  0  0  0  0  0  0  0  0
   -5.4641   -0.0034    7.2404 H   0  0  0  0  0  0  0  0  0  0  0  0
   -5.3989    4.7193    3.7596 H   0  0  0  0  0  0  0  0  0  0  0  0
   -3.8140    5.2141    3.0924 H   0  0  0  0  0  0  0  0  0  0  0  0
   -3.9048    3.9260    4.3345 H   0  0  0  0  0  0  0  0  0  0  0  0
  1  2  2  0  0  0  0
  1  6  1  0  0  0  0
  1 27  1  0  0  0  0
  2  3  1  0  0  0  0
  2 23  1  0  0  0  0
  3  4  2  0  0  0  0
  3  7  1  0  0  0  0
  4  5  1  0  0  0  0
  4 10  1  0  0  0  0
  5  6  2  0  0  0  0
  5 26  1  0  0  0  0
  6 24  1  0  0  0  0
  7  8  2  0  0  0  0
  7 11  1  0  0  0  0
  8  9  1  0  0  0  0
  8 14  1  0  0  0  0
  9 10  1  0  0  0  0
  9 17  2  0  0  0  0
 11 12  2  0  0  0  0
 11 18  1  0  0  0  0
 12 13  1  0  0  0  0
 12 21  1  0  0  0  0
 13 14  2  0  0  0  0
 14 15  1  0  0  0  0
 15 16  2  0  0  0  0
 15 29  1  0  0  0  0
 16 17  1  0  0  0  0
 16 35  1  0  0  0  0
 17 28  1  0  0  0  0
 18 19  2  0  0  0  0
 18 22  1  0  0  0  0
 19 20  1  0  0  0  0
 19 31  1  0  0  0  0
 20 21  2  0  0  0  0
 20 25  1  0  0  0  0
 21 30  1  0  0  0  0
 22 42  1  0  0  0  0
 23 43  1  0  0  0  0
 24 32  2  0  0  0  0
 24 33  1  0  0  0  0
 25 39  2  0  0  0  0
 25 40  1  0  0  0  0
 33 34  1  0  0  0  0
 34 56  1  0  0  0  0
 34 57  1  0  0  0  0
 34 58  1  0  0  0  0
 35 36  2  0  0  0  0
 35 37  1  0  0  0  0
 37 38  1  0  0  0  0
 38 47  1  0  0  0  0
 38 48  1  0  0  0  0
 38 49  1  0  0  0  0
 40 41  1  0  0  0  0
 41 44  1  0  0  0  0
 41 45  1  0  0  0  0
 41 46  1  0  0  0  0
 42 53  1  0  0  0  0
 42 54  1  0  0  0  0
 42 55  1  0  0  0  0
 43 50  1  0  0  0  0
 43 51  1  0  0  0  0
 43 52  1  0  0  0  0
 59 60  2  0  0  0  0
 59 64  1  0  0  0  0
 59 85  1  0  0  0  0
 60 61  1  0  0  0  0
 60 81  1  0  0  0  0
 61 62  2  0  0  0  0
 61 65  1  0  0  0  0
 62 63  1  0  0  0  0
 62 68  1  0  0  0  0
 63 64  2  0  0  0  0
 63 84  1  0  0  0  0
 64 82  1  0  0  0  0
 65 66  2  0  0  0  0
 65 69  1  0  0  0  0
 66 67  1  0  0  0  0
 66 72  1  0  0  0  0
 67 68  1  0  0  0  0
 67 75  2  0  0  0  0
 69 70  2  0  0  0  0
 69 76  1  0  0  0  0
 70 71  1  0  0  0  0
 70 79  1  0  0  0  0
 71 72  2  0  0  0  0
 72 73  1  0  0  0  0
 73 74  2  0  0  0  0
 73 87  1  0  0  0  0
 74 75  1  0  0  0  0
 74 93  1  0  0  0  0
 75 86  1  0  0  0  0
 76 77  2  0  0  0  0
 76 80  1  0  0  0  0
 77 78  1  0  0  0  0
 77 89  1  0  0  0  0
 78 79  2  0  0  0  0
 78 83  1  0  0  0  0
 79 88  1  0  0  0  0
 80100  1  0  0  0  0
 81101  1  0  0  0  0
 82 90  2  0  0  0  0
 82 91  1  0  0  0  0
 83 97  2  0  0  0  0
 83 98  1  0  0  0  0
 91 92  1  0  0  0  0
 92114  1  0  0  0  0
 92115  1  0  0  0  0
 92116  1  0  0  0  0
 93 94  2  0  0  0  0
 93 95  1  0  0  0  0
 95 96  1  0  0  0  0
 96105  1  0  0  0  0
 96106  1  0  0  0  0
 96107  1  0  0  0  0
 98 99  1  0  0  0  0
 99102  1  0  0  0  0
 99103  1  0  0  0  0
 99104  1  0  0  0  0
100111  1  0  0  0  0
100112  1  0  0  0  0
100113  1  0  0  0  0
101108  1  0  0  0  0
101109  1  0  0  0  0
101110  1  0  0  0  0
M  END
