
 OpenBabel11072415393D

109120  0  0  0  0  0  0  0  0999 V2000
    2.7267    1.4441    1.5994 C   0  0  0  0  0  0  0  0  0  0  0  0
    2.2521    0.2690    1.1259 C   0  0  0  0  0  0  0  0  0  0  0  0
    3.1285   -0.7369    0.5761 C   0  0  0  0  0  0  0  0  0  0  0  0
    4.4378   -0.2744    0.3832 C   0  0  0  0  0  0  0  0  0  0  0  0
    4.8533    0.9348    0.7954 C   0  0  0  0  0  0  0  0  0  0  0  0
    4.0353    1.7647    1.4721 C   0  0  0  0  0  0  0  0  0  0  0  0
    2.9665   -2.2436    0.3880 C   0  0  0  0  0  0  0  0  0  0  0  0
    4.1597   -3.0394   -0.0575 C   0  3  0  0  0  0  0  0  0  0  0  0
    5.4237   -2.2628   -0.2780 C   0  0  0  0  0  0  0  0  0  0  0  0
    5.4891   -1.0312   -0.0613 N   0  0  0  0  0  0  0  0  0  0  0  0
    1.9545   -2.9469    0.9467 C   0  0  0  0  0  0  0  0  0  0  0  0
    2.1492   -4.2941    1.4052 C   0  0  0  0  0  0  0  0  0  0  0  0
    3.2688   -4.8814    1.3472 N   0  0  0  0  0  0  0  0  0  0  0  0
    4.3654   -4.2153    0.8312 C   0  0  0  0  0  0  0  0  0  0  0  0
    5.5384   -4.5813    1.2559 C   0  0  0  0  0  0  0  0  0  0  0  0
    6.7447   -3.9077    0.8126 C   0  0  0  0  0  0  0  0  0  0  0  0
    6.6968   -2.8408    0.0211 C   0  0  0  0  0  0  0  0  0  0  0  0
    0.7267   -2.3688    1.1102 C   0  0  0  0  0  0  0  0  0  0  0  0
   -0.2354   -3.0586    1.8125 C   0  0  0  0  0  0  0  0  0  0  0  0
   -0.0522   -4.3978    2.2353 C   0  0  0  0  0  0  0  0  0  0  0  0
    1.1515   -4.9970    2.0105 C   0  0  0  0  0  0  0  0  0  0  0  0
    0.9510    0.3198    1.2331 O   0  0  0  0  0  0  0  0  0  0  0  0
   -2.5394   -1.8677    0.4730 C   0  0  0  0  0  0  0  0  0  0  0  0
   -2.2402   -0.4990    0.4509 C   0  0  0  0  0  0  0  0  0  0  0  0
   -2.9542    0.3665   -0.3803 C   0  0  0  0  0  0  0  0  0  0  0  0
   -3.9043   -0.1861   -1.2260 C   0  0  0  0  0  0  0  0  0  0  0  0
   -4.1292   -1.4968   -1.2493 C   0  0  0  0  0  0  0  0  0  0  0  0
   -3.4880   -2.3647   -0.4198 C   0  0  0  0  0  0  0  0  0  0  0  0
   -2.8899    1.8384   -0.3457 C   0  0  0  0  0  0  0  0  0  0  0  0
   -4.2580    2.3602   -0.4315 C   0  0  2  0  0  0  0  0  0  0  0  0
   -4.9618    1.8085   -1.6362 C   0  0  0  0  0  0  0  0  0  0  0  0
   -4.8062    0.5881   -1.9520 N   0  0  0  0  0  0  0  0  0  0  0  0
   -1.8393    2.6657   -0.2017 C   0  0  0  0  0  0  0  0  0  0  0  0
   -2.0657    4.0627    0.0148 C   0  0  0  0  0  0  0  0  0  0  0  0
   -3.2335    4.5940   -0.0300 N   0  0  0  0  0  0  0  0  0  0  0  0
   -4.3584    3.8232   -0.3583 C   0  0  0  0  0  0  0  0  0  0  0  0
   -5.5030    4.3794   -0.7101 C   0  0  0  0  0  0  0  0  0  0  0  0
   -6.5668    3.5315   -1.3109 C   0  0  0  0  0  0  0  0  0  0  0  0
   -6.2733    2.3425   -1.8576 C   0  0  0  0  0  0  0  0  0  0  0  0
   -0.5173    2.2112   -0.3234 C   0  0  0  0  0  0  0  0  0  0  0  0
    0.5204    3.1217   -0.2311 C   0  0  0  0  0  0  0  0  0  0  0  0
    0.2888    4.4632    0.0338 C   0  0  0  0  0  0  0  0  0  0  0  0
   -1.0080    4.9242    0.1537 C   0  0  0  0  0  0  0  0  0  0  0  0
   -1.2065   -0.0630    1.1330 O   0  0  0  0  0  0  0  0  0  0  0  0
   -0.0210   -0.0998    0.3332 B   0  5  2  0  0  0  0  0  0  0  0  0
    0.3054   -1.5386    0.0067 N   0  0  0  0  0  0  0  0  0  0  0  0
    0.1289   -3.6515   -1.3725 C   0  0  0  0  0  0  0  0  0  0  0  0
   -0.0596   -2.1284   -1.2900 C   0  0  0  0  0  0  0  0  0  0  0  0
   -0.2209    0.9230   -0.8431 N   0  0  0  0  0  0  0  0  0  0  0  0
   -0.0419    2.0351   -3.0901 C   0  0  0  0  0  0  0  0  0  0  0  0
    0.4548    0.8988   -2.1483 C   0  0  0  0  0  0  0  0  0  0  0  0
   -8.2399    4.0802   -1.2967 S   0  0  0  0  0  0  0  0  0  0  0  0
   -7.8316    5.0731   -2.6242 F   0  0  0  0  0  0  0  0  0  0  0  0
   -7.8231    5.3408   -0.1988 F   0  0  0  0  0  0  0  0  0  0  0  0
   -9.8326    4.6623   -1.3281 F   0  0  0  0  0  0  0  0  0  0  0  0
   -8.7206    2.8331   -2.3644 F   0  0  0  0  0  0  0  0  0  0  0  0
   -8.5882    3.0684    0.0451 F   0  0  0  0  0  0  0  0  0  0  0  0
    1.5037    5.6582   -0.4940 S   0  0  0  0  0  0  0  0  0  0  0  0
    2.2051    4.4821   -1.5445 F   0  0  0  0  0  0  0  0  0  0  0  0
    2.5036    5.3013    0.7950 F   0  0  0  0  0  0  0  0  0  0  0  0
    2.6495    6.7733   -1.0650 F   0  0  0  0  0  0  0  0  0  0  0  0
    0.8465    6.8460    0.5369 F   0  0  0  0  0  0  0  0  0  0  0  0
    0.4576    6.0848   -1.7697 F   0  0  0  0  0  0  0  0  0  0  0  0
   -4.1501   -4.0146   -0.6463 S   0  0  0  0  0  0  0  0  0  0  0  0
   -5.6953   -3.3578   -0.3537 F   0  0  0  0  0  0  0  0  0  0  0  0
   -4.1729   -4.2640    1.0664 F   0  0  0  0  0  0  0  0  0  0  0  0
   -4.8154   -5.5619   -0.7982 F   0  0  0  0  0  0  0  0  0  0  0  0
   -2.6228   -4.7052   -1.0451 F   0  0  0  0  0  0  0  0  0  0  0  0
   -4.2033   -3.7780   -2.3302 F   0  0  0  0  0  0  0  0  0  0  0  0
   -1.4418   -5.5049    1.9392 S   0  0  0  0  0  0  0  0  0  0  0  0
   -1.9850   -4.3254    0.9856 F   0  0  0  0  0  0  0  0  0  0  0  0
   -2.3059   -4.8428    3.2528 F   0  0  0  0  0  0  0  0  0  0  0  0
   -2.7724   -6.4771    1.4927 F   0  0  0  0  0  0  0  0  0  0  0  0
   -0.8594   -6.7648    2.9240 F   0  0  0  0  0  0  0  0  0  0  0  0
   -0.6279   -6.1552    0.5656 F   0  0  0  0  0  0  0  0  0  0  0  0
    8.2829   -4.6400    1.2337 S   0  0  0  0  0  0  0  0  0  0  0  0
    8.0981   -5.5636   -0.1907 F   0  0  0  0  0  0  0  0  0  0  0  0
    7.4953   -5.8708    2.1465 F   0  0  0  0  0  0  0  0  0  0  0  0
    9.7563   -5.3987    1.5783 F   0  0  0  0  0  0  0  0  0  0  0  0
    9.1370   -3.4334    0.3678 F   0  0  0  0  0  0  0  0  0  0  0  0
    8.3952   -3.6880    2.6576 F   0  0  0  0  0  0  0  0  0  0  0  0
    4.5165    3.4193    1.6113 S   0  0  0  0  0  0  0  0  0  0  0  0
    5.9972    3.1338    0.7959 F   0  0  0  0  0  0  0  0  0  0  0  0
    4.9452    5.0597    1.6483 F   0  0  0  0  0  0  0  0  0  0  0  0
    3.0584    3.7728    2.4680 F   0  0  0  0  0  0  0  0  0  0  0  0
    3.8047    3.5679    0.0655 F   0  0  0  0  0  0  0  0  0  0  0  0
    5.2550    3.1417    3.1196 F   0  0  0  0  0  0  0  0  0  0  0  0
   -0.1588   -3.9944   -2.3444 H   0  0  0  0  0  0  0  0  0  0  0  0
   -0.4798   -4.1268   -0.6319 H   0  0  0  0  0  0  0  0  0  0  0  0
    1.1565   -3.8937   -1.1986 H   0  0  0  0  0  0  0  0  0  0  0  0
    0.5469   -1.6751   -2.0461 H   0  0  0  0  0  0  0  0  0  0  0  0
   -1.1047   -1.9431   -1.4255 H   0  0  0  0  0  0  0  0  0  0  0  0
    0.2653   -0.0443   -2.6168 H   0  0  0  0  0  0  0  0  0  0  0  0
    1.5008    1.0470   -1.9789 H   0  0  0  0  0  0  0  0  0  0  0  0
   -1.0882    1.9115   -3.2771 H   0  0  0  0  0  0  0  0  0  0  0  0
    0.4935    1.9908   -4.0155 H   0  0  0  0  0  0  0  0  0  0  0  0
    0.1277    2.9836   -2.6249 H   0  0  0  0  0  0  0  0  0  0  0  0
   -4.8165   -1.8702   -1.9224 H   0  0  0  0  0  0  0  0  0  0  0  0
   -6.9696    1.8285   -2.4197 H   0  0  0  0  0  0  0  0  0  0  0  0
   -5.6575    5.3901   -0.5698 H   0  0  0  0  0  0  0  0  0  0  0  0
    5.8191    1.2344    0.5894 H   0  0  0  0  0  0  0  0  0  0  0  0
    5.6130   -5.3664    1.9216 H   0  0  0  0  0  0  0  0  0  0  0  0
    7.5623   -2.4373   -0.3702 H   0  0  0  0  0  0  0  0  0  0  0  0
    1.3058   -5.9763    2.2968 H   0  0  0  0  0  0  0  0  0  0  0  0
   -1.1816    5.9226    0.3489 H   0  0  0  0  0  0  0  0  0  0  0  0
   -1.1225   -2.5826    2.0393 H   0  0  0  0  0  0  0  0  0  0  0  0
    2.0830    2.1040    2.0633 H   0  0  0  0  0  0  0  0  0  0  0  0
    1.4904    2.7946   -0.3625 H   0  0  0  0  0  0  0  0  0  0  0  0
   -2.0654   -2.4975    1.1391 H   0  0  0  0  0  0  0  0  0  0  0  0
  1  2  2  0  0  0  0
  1107  1  0  0  0  0
  2  3  1  0  0  0  0
  3  4  2  0  0  0  0
  3  7  1  0  0  0  0
  4  5  1  0  0  0  0
  5  6  2  0  0  0  0
  5101  1  0  0  0  0
  6  1  1  0  0  0  0
  6 82  1  0  0  0  0
  7  8  1  0  0  0  0
  7 11  2  0  0  0  0
  8  9  1  0  0  0  0
  9 10  2  0  0  0  0
 10  4  1  0  0  0  0
 11 12  1  0  0  0  0
 11 18  1  0  0  0  0
 12 13  2  0  0  0  0
 13 14  1  0  0  0  0
 14  8  1  0  0  0  0
 14 15  2  0  0  0  0
 15 16  1  0  0  0  0
 15102  1  0  0  0  0
 16 76  1  0  0  0  0
 16 17  2  0  0  0  0
 17  9  1  0  0  0  0
 17103  1  0  0  0  0
 18 46  1  0  0  0  0
 18 19  2  0  0  0  0
 19 20  1  0  0  0  0
 19106  1  0  0  0  0
 20 70  1  0  0  0  0
 20 21  2  0  0  0  0
 21 12  1  0  0  0  0
 21104  1  0  0  0  0
 22  2  1  0  0  0  0
 23 24  2  0  0  0  0
 23109  1  0  0  0  0
 24 25  1  0  0  0  0
 24 44  1  0  0  0  0
 25 26  2  0  0  0  0
 25 29  1  0  0  0  0
 26 27  1  0  0  0  0
 27 28  2  0  0  0  0
 27 98  1  0  0  0  0
 28 64  1  0  0  0  0
 28 23  1  0  0  0  0
 29 33  2  0  0  0  0
 30 29  1  6  0  0  0
 30 31  1  0  0  0  0
 31 32  2  0  0  0  0
 32 26  1  0  0  0  0
 33 34  1  0  0  0  0
 33 40  1  0  0  0  0
 34 35  2  0  0  0  0
 35 36  1  0  0  0  0
 36 30  1  0  0  0  0
 36 37  2  0  0  0  0
 37 38  1  0  0  0  0
 37100  1  0  0  0  0
 38 52  1  0  0  0  0
 38 39  2  0  0  0  0
 39 31  1  0  0  0  0
 39 99  1  0  0  0  0
 40 49  1  0  0  0  0
 40 41  2  0  0  0  0
 41 42  1  0  0  0  0
 41108  1  0  0  0  0
 42 58  1  0  0  0  0
 42 43  2  0  0  0  0
 43 34  1  0  0  0  0
 43105  1  0  0  0  0
 45 46  1  0  0  0  0
 45 49  1  0  0  0  0
 45 22  1  1  0  0  0
 45 44  1  0  0  0  0
 46 48  1  0  0  0  0
 47 48  1  0  0  0  0
 47 88  1  0  0  0  0
 47 89  1  0  0  0  0
 47 90  1  0  0  0  0
 48 91  1  0  0  0  0
 48 92  1  0  0  0  0
 49 51  1  0  0  0  0
 50 51  1  0  0  0  0
 50 95  1  0  0  0  0
 50 96  1  0  0  0  0
 50 97  1  0  0  0  0
 51 93  1  0  0  0  0
 51 94  1  0  0  0  0
 52 53  1  0  0  0  0
 52 54  1  0  0  0  0
 52 55  1  0  0  0  0
 52 56  1  0  0  0  0
 52 57  1  0  0  0  0
 58 59  1  0  0  0  0
 58 60  1  0  0  0  0
 58 61  1  0  0  0  0
 58 62  1  0  0  0  0
 58 63  1  0  0  0  0
 64 65  1  0  0  0  0
 64 66  1  0  0  0  0
 64 67  1  0  0  0  0
 64 68  1  0  0  0  0
 64 69  1  0  0  0  0
 70 71  1  0  0  0  0
 70 72  1  0  0  0  0
 70 73  1  0  0  0  0
 70 74  1  0  0  0  0
 70 75  1  0  0  0  0
 76 77  1  0  0  0  0
 76 78  1  0  0  0  0
 76 79  1  0  0  0  0
 76 80  1  0  0  0  0
 76 81  1  0  0  0  0
 82 83  1  0  0  0  0
 82 84  1  0  0  0  0
 82 85  1  0  0  0  0
 82 86  1  0  0  0  0
 82 87  1  0  0  0  0
M  CHG  2   8   1  45  -1
M  END
