 energy: -56.988719575286 gnorm: 0.000421868168 xtb: 6.7.1 (edcfbbe)
          02282514253D

282304  0     0  0            999 V2000
   -0.7662   -1.4667   -2.7272 C   0  0  0  0  0  0  0  0  0  0  0  0
   -1.4241   -0.8578   -1.6533 C   0  0  0  0  0  0  0  0  0  0  0  0
   -2.7968   -0.4440   -1.8454 C   0  0  0  0  0  0  0  0  0  0  0  0
   -3.4538   -0.9791   -2.9897 C   0  0  0  0  0  0  0  0  0  0  0  0
   -2.7512   -1.6747   -3.9723 C   0  0  0  0  0  0  0  0  0  0  0  0
   -1.3968   -1.8889   -3.8896 C   0  0  0  0  0  0  0  0  0  0  0  0
   -3.5396    0.4657   -0.9802 C   0  0  0  0  0  0  0  0  0  0  0  0
   -4.9679    0.5304   -1.1240 C   0  0  0  0  0  0  0  0  0  0  0  0
   -5.6418   -0.1223   -2.1908 C   0  0  0  0  0  0  0  0  0  0  0  0
   -4.8907   -0.8518   -3.1928 C   0  0  0  0  0  0  0  0  0  0  0  0
   -2.9342    1.3127    0.0322 C   0  0  0  0  0  0  0  0  0  0  0  0
   -3.7581    1.9172    1.0261 C   0  0  0  0  0  0  0  0  0  0  0  0
   -5.2047    1.9972    0.8832 C   0  0  0  0  0  0  0  0  0  0  0  0
   -5.7886    1.2659   -0.2226 C   0  0  0  0  0  0  0  0  0  0  0  0
   -7.1680    1.3052   -0.3794 C   0  0  0  0  0  0  0  0  0  0  0  0
   -7.8174    0.6521   -1.4161 C   0  0  0  0  0  0  0  0  0  0  0  0
   -7.0246   -0.0486   -2.3129 C   0  0  0  0  0  0  0  0  0  0  0  0
   -1.5263    1.5978    0.1127 C   0  0  0  0  0  0  0  0  0  0  0  0
   -1.0391    2.1007    1.3225 C   0  0  0  0  0  0  0  0  0  0  0  0
   -1.8452    2.5440    2.3608 C   0  0  0  0  0  0  0  0  0  0  0  0
   -3.2053    2.4998    2.1646 C   0  0  0  0  0  0  0  0  0  0  0  0
   -0.6965   -0.7447   -0.4535 O   0  0  0  0  0  0  0  0  0  0  0  0
   -0.6360    1.4450   -0.9612 O   0  0  0  0  0  0  0  0  0  0  0  0
    0.3206    0.3390   -0.6350 B   0  0  0  0  0  0  0  0  0  0  0  0
    1.6635   -2.4156   -0.7758 C   0  0  0  0  0  0  0  0  0  0  0  0
    2.1793   -1.1234   -0.9060 C   0  0  0  0  0  0  0  0  0  0  0  0
    3.4962   -0.8638   -0.3850 C   0  0  0  0  0  0  0  0  0  0  0  0
    4.2486   -1.9866    0.0572 C   0  0  0  0  0  0  0  0  0  0  0  0
    3.6750   -3.2526    0.1316 C   0  0  0  0  0  0  0  0  0  0  0  0
    2.3823   -3.4921   -0.2669 C   0  0  0  0  0  0  0  0  0  0  0  0
    4.1216    0.4493   -0.3407 C   0  0  0  0  0  0  0  0  0  0  0  0
    5.5565    0.5033   -0.2747 C   0  0  0  0  0  0  0  0  0  0  0  0
    6.3315   -0.6421    0.0469 C   0  0  0  0  0  0  0  0  0  0  0  0
    3.4001    1.7088   -0.3739 C   0  0  0  0  0  0  0  0  0  0  0  0
    4.1092    2.8993   -0.6949 C   0  0  0  0  0  0  0  0  0  0  0  0
    5.5587    2.9228   -0.8477 C   0  0  0  0  0  0  0  0  0  0  0  0
    6.2738    1.7000   -0.5386 C   0  0  0  0  0  0  0  0  0  0  0  0
    7.6629    1.7147   -0.5163 C   0  0  0  0  0  0  0  0  0  0  0  0
    8.4156    0.5853   -0.2286 C   0  0  0  0  0  0  0  0  0  0  0  0
    7.7207   -0.5824    0.0541 C   0  0  0  0  0  0  0  0  0  0  0  0
    2.0031    1.8466   -0.0631 C   0  0  0  0  0  0  0  0  0  0  0  0
    1.4048    3.0885   -0.2981 C   0  0  0  0  0  0  0  0  0  0  0  0
    2.0904    4.2310   -0.6877 C   0  0  0  0  0  0  0  0  0  0  0  0
    3.4492    4.1161   -0.8492 C   0  0  0  0  0  0  0  0  0  0  0  0
    1.2062    0.8192    0.4722 O   0  0  0  0  0  0  0  0  0  0  0  0
    1.3883   -0.1652   -1.5625 O   0  0  0  0  0  0  0  0  0  0  0  0
    5.6678   -1.8888    0.3845 C   0  0  0  0  0  0  0  0  0  0  0  0
    6.1556    3.9446   -1.1919 O   0  0  0  0  0  0  0  0  0  0  0  0
    6.2887   -2.8279    0.8861 O   0  0  0  0  0  0  0  0  0  0  0  0
   -5.4507   -1.3594   -4.1666 O   0  0  0  0  0  0  0  0  0  0  0  0
   -5.8980    2.6773    1.6428 O   0  0  0  0  0  0  0  0  0  0  0  0
   -0.6547   -2.6312   -5.0143 C   0  0  0  0  0  0  0  0  0  0  0  0
    0.8628   -2.6979   -4.7486 C   0  0  0  0  0  0  0  0  0  0  0  0
   -0.8792   -1.8992   -6.3518 C   0  0  0  0  0  0  0  0  0  0  0  0
   -1.1947   -4.0706   -5.1159 C   0  0  0  0  0  0  0  0  0  0  0  0
   -1.1990    3.1168    3.6290 C   0  0  0  0  0  0  0  0  0  0  0  0
   -0.4284    4.4021    3.2763 C   0  0  0  0  0  0  0  0  0  0  0  0
   -2.2575    3.4594    4.6939 C   0  0  0  0  0  0  0  0  0  0  0  0
   -0.2316    2.0677    4.2092 C   0  0  0  0  0  0  0  0  0  0  0  0
   -9.3467    0.6969   -1.5971 C   0  0  0  0  0  0  0  0  0  0  0  0
   -9.6846    1.3730   -2.9408 C   0  0  0  0  0  0  0  0  0  0  0  0
  -10.0354    1.4919   -0.4668 C   0  0  0  0  0  0  0  0  0  0  0  0
   -9.9085   -0.7391   -1.5873 C   0  0  0  0  0  0  0  0  0  0  0  0
    1.8150   -4.9195   -0.1854 C   0  0  0  0  0  0  0  0  0  0  0  0
    0.3688   -4.9922   -0.7137 C   0  0  0  0  0  0  0  0  0  0  0  0
    1.8425   -5.3907    1.2826 C   0  0  0  0  0  0  0  0  0  0  0  0
    2.6786   -5.8666   -1.0428 C   0  0  0  0  0  0  0  0  0  0  0  0
    1.3952    5.5916   -0.8681 C   0  0  0  0  0  0  0  0  0  0  0  0
    1.8700    6.5524    0.2382 C   0  0  0  0  0  0  0  0  0  0  0  0
    1.7495    6.1778   -2.2489 C   0  0  0  0  0  0  0  0  0  0  0  0
   -0.1392    5.4631   -0.7805 C   0  0  0  0  0  0  0  0  0  0  0  0
    9.9547    0.6625   -0.2273 C   0  0  0  0  0  0  0  0  0  0  0  0
   10.4149    1.6749    0.8404 C   0  0  0  0  0  0  0  0  0  0  0  0
   10.6033   -0.7014    0.0911 C   0  0  0  0  0  0  0  0  0  0  0  0
   10.4476    1.1166   -1.6162 C   0  0  0  0  0  0  0  0  0  0  0  0
   -1.7921    3.8045    5.6193 H   0  0  0  0  0  0  0  0  0  0  0  0
   -2.8576    2.5821    4.9324 H   0  0  0  0  0  0  0  0  0  0  0  0
   -2.9276    4.2497    4.3494 H   0  0  0  0  0  0  0  0  0  0  0  0
    0.2038    2.4083    5.1486 H   0  0  0  0  0  0  0  0  0  0  0  0
    0.5895    1.8514    3.5244 H   0  0  0  0  0  0  0  0  0  0  0  0
   -0.7556    1.1314    4.4075 H   0  0  0  0  0  0  0  0  0  0  0  0
   -0.0149    4.8724    4.1712 H   0  0  0  0  0  0  0  0  0  0  0  0
   -1.0880    5.1268    2.7948 H   0  0  0  0  0  0  0  0  0  0  0  0
    0.3963    4.1935    2.5928 H   0  0  0  0  0  0  0  0  0  0  0  0
   -0.6216    6.4283   -0.9498 H   0  0  0  0  0  0  0  0  0  0  0  0
   -0.4522    5.1108    0.2036 H   0  0  0  0  0  0  0  0  0  0  0  0
   -0.5177    4.7670   -1.5313 H   0  0  0  0  0  0  0  0  0  0  0  0
    1.3875    7.5287    0.1469 H   0  0  0  0  0  0  0  0  0  0  0  0
    2.9496    6.7075    0.1902 H   0  0  0  0  0  0  0  0  0  0  0  0
    1.6344    6.1515    1.2261 H   0  0  0  0  0  0  0  0  0  0  0  0
    1.2381    7.1291   -2.4157 H   0  0  0  0  0  0  0  0  0  0  0  0
    1.4537    5.4926   -3.0459 H   0  0  0  0  0  0  0  0  0  0  0  0
    2.8214    6.3593   -2.3438 H   0  0  0  0  0  0  0  0  0  0  0  0
   11.5055    1.7430    0.8763 H   0  0  0  0  0  0  0  0  0  0  0  0
   10.0642    1.3783    1.8316 H   0  0  0  0  0  0  0  0  0  0  0  0
   10.0268    2.6742    0.6342 H   0  0  0  0  0  0  0  0  0  0  0  0
   11.6943   -0.6317    0.0639 H   0  0  0  0  0  0  0  0  0  0  0  0
   10.3060   -1.4613   -0.6352 H   0  0  0  0  0  0  0  0  0  0  0  0
   10.3254   -1.0467    1.0889 H   0  0  0  0  0  0  0  0  0  0  0  0
   11.5394    1.1643   -1.6521 H   0  0  0  0  0  0  0  0  0  0  0  0
   10.0652    2.1069   -1.8706 H   0  0  0  0  0  0  0  0  0  0  0  0
   10.1169    0.4213   -2.3912 H   0  0  0  0  0  0  0  0  0  0  0  0
   -0.3419   -2.3921   -7.1659 H   0  0  0  0  0  0  0  0  0  0  0  0
   -0.5254   -0.8680   -6.2910 H   0  0  0  0  0  0  0  0  0  0  0  0
   -1.9367   -1.8748   -6.6209 H   0  0  0  0  0  0  0  0  0  0  0  0
   -0.6773   -4.6317   -5.8982 H   0  0  0  0  0  0  0  0  0  0  0  0
   -2.2609   -4.0786   -5.3503 H   0  0  0  0  0  0  0  0  0  0  0  0
   -1.0564   -4.6029   -4.1725 H   0  0  0  0  0  0  0  0  0  0  0  0
    1.3804   -3.2013   -5.5683 H   0  0  0  0  0  0  0  0  0  0  0  0
    1.0804   -3.2536   -3.8348 H   0  0  0  0  0  0  0  0  0  0  0  0
    1.2891   -1.6976   -4.6532 H   0  0  0  0  0  0  0  0  0  0  0  0
   -0.0295   -6.0061   -0.6273 H   0  0  0  0  0  0  0  0  0  0  0  0
    0.3216   -4.7087   -1.7667 H   0  0  0  0  0  0  0  0  0  0  0  0
   -0.2923   -4.3306   -0.1555 H   0  0  0  0  0  0  0  0  0  0  0  0
    2.2864   -6.8864   -1.0185 H   0  0  0  0  0  0  0  0  0  0  0  0
    3.7098   -5.9002   -0.6865 H   0  0  0  0  0  0  0  0  0  0  0  0
    2.6956   -5.5373   -2.0839 H   0  0  0  0  0  0  0  0  0  0  0  0
    1.3553   -6.3623    1.3967 H   0  0  0  0  0  0  0  0  0  0  0  0
    1.3344   -4.6761    1.9324 H   0  0  0  0  0  0  0  0  0  0  0  0
    2.8671   -5.4889    1.6466 H   0  0  0  0  0  0  0  0  0  0  0  0
  -10.7658    1.4314   -3.0931 H   0  0  0  0  0  0  0  0  0  0  0  0
   -9.2608    0.8198   -3.7812 H   0  0  0  0  0  0  0  0  0  0  0  0
   -9.2857    2.3894   -2.9748 H   0  0  0  0  0  0  0  0  0  0  0  0
  -10.9969   -0.7384   -1.6915 H   0  0  0  0  0  0  0  0  0  0  0  0
   -9.6613   -1.2451   -0.6513 H   0  0  0  0  0  0  0  0  0  0  0  0
   -9.4987   -1.3332   -2.4064 H   0  0  0  0  0  0  0  0  0  0  0  0
  -11.1205    1.5036   -0.6010 H   0  0  0  0  0  0  0  0  0  0  0  0
   -9.6976    2.5306   -0.4501 H   0  0  0  0  0  0  0  0  0  0  0  0
   -9.8308    1.0469    0.5097 H   0  0  0  0  0  0  0  0  0  0  0  0
   -7.7338    1.8692    0.3401 H   0  0  0  0  0  0  0  0  0  0  0  0
   -7.4849   -0.5558   -3.1424 H   0  0  0  0  0  0  0  0  0  0  0  0
   -3.2976   -2.0365   -4.8256 H   0  0  0  0  0  0  0  0  0  0  0  0
    0.2940   -1.5969   -2.6513 H   0  0  0  0  0  0  0  0  0  0  0  0
   -3.8773    2.9043    2.9001 H   0  0  0  0  0  0  0  0  0  0  0  0
    0.0222    2.1656    1.4599 H   0  0  0  0  0  0  0  0  0  0  0  0
    0.3412    3.1574   -0.2013 H   0  0  0  0  0  0  0  0  0  0  0  0
    4.0347    4.9832   -1.0994 H   0  0  0  0  0  0  0  0  0  0  0  0
    8.1605    2.6436   -0.7320 H   0  0  0  0  0  0  0  0  0  0  0  0
    8.2599   -1.4879    0.2643 H   0  0  0  0  0  0  0  0  0  0  0  0
    4.2815   -4.0639    0.4940 H   0  0  0  0  0  0  0  0  0  0  0  0
    0.6477   -2.5827   -1.0717 H   0  0  0  0  0  0  0  0  0  0  0  0
   -1.7669   -1.7074    4.7593 C   0  0  0  0  0  0  0  0  0  0  0  0
   -2.3062   -0.9977    5.8506 C   0  0  0  0  0  0  0  0  0  0  0  0
   -3.4207   -0.1212    5.5726 C   0  0  0  0  0  0  0  0  0  0  0  0
   -4.0720   -0.3403    4.3234 C   0  0  0  0  0  0  0  0  0  0  0  0
   -3.4963   -1.0713    3.3031 C   0  0  0  0  0  0  0  0  0  0  0  0
   -2.2869   -1.7077    3.4857 C   0  0  0  0  0  0  0  0  0  0  0  0
   -3.8789    0.9647    6.4134 C   0  0  0  0  0  0  0  0  0  0  0  0
   -5.0956    1.6507    6.0477 C   0  0  0  0  0  0  0  0  0  0  0  0
   -5.7752    1.3578    4.8449 C   0  0  0  0  0  0  0  0  0  0  0  0
   -5.3836    0.2188    4.0423 C   0  0  0  0  0  0  0  0  0  0  0  0
   -3.1463    1.4992    7.5368 C   0  0  0  0  0  0  0  0  0  0  0  0
   -3.8059    2.3354    8.4798 C   0  0  0  0  0  0  0  0  0  0  0  0
   -5.0906    2.9567    8.1634 C   0  0  0  0  0  0  0  0  0  0  0  0
   -5.6322    2.6994    6.8328 C   0  0  0  0  0  0  0  0  0  0  0  0
   -6.6653    3.4865    6.3410 C   0  0  0  0  0  0  0  0  0  0  0  0
   -7.2230    3.2718    5.0859 C   0  0  0  0  0  0  0  0  0  0  0  0
   -6.7854    2.1701    4.3739 C   0  0  0  0  0  0  0  0  0  0  0  0
   -1.7463    1.2612    7.7734 C   0  0  0  0  0  0  0  0  0  0  0  0
   -1.2543    1.4650    9.0752 C   0  0  0  0  0  0  0  0  0  0  0  0
   -1.9632    2.1429   10.0457 C   0  0  0  0  0  0  0  0  0  0  0  0
   -3.2162    2.6257    9.6996 C   0  0  0  0  0  0  0  0  0  0  0  0
   -1.7038   -1.1680    7.0958 O   0  0  0  0  0  0  0  0  0  0  0  0
   -0.8674    0.8948    6.7679 O   0  0  0  0  0  0  0  0  0  0  0  0
   -0.3733   -0.4782    7.0081 B   0  0  0  0  0  0  0  0  0  0  0  0
   -0.1340   -3.3948    6.8605 C   0  0  0  0  0  0  0  0  0  0  0  0
    0.8020   -2.3993    6.5371 C   0  0  0  0  0  0  0  0  0  0  0  0
    2.1845   -2.6886    6.7426 C   0  0  0  0  0  0  0  0  0  0  0  0
    2.5405   -4.0540    6.8963 C   0  0  0  0  0  0  0  0  0  0  0  0
    1.5701   -5.0161    7.1258 C   0  0  0  0  0  0  0  0  0  0  0  0
    0.2209   -4.6932    7.1629 C   0  0  0  0  0  0  0  0  0  0  0  0
    3.1920   -1.6600    6.6952 C   0  0  0  0  0  0  0  0  0  0  0  0
    4.4938   -2.0872    6.2505 C   0  0  0  0  0  0  0  0  0  0  0  0
    4.8209   -3.4609    6.1381 C   0  0  0  0  0  0  0  0  0  0  0  0
    2.9508   -0.2577    6.9599 C   0  0  0  0  0  0  0  0  0  0  0  0
    3.9633    0.6738    6.5954 C   0  0  0  0  0  0  0  0  0  0  0  0
    5.2678    0.2570    6.0854 C   0  0  0  0  0  0  0  0  0  0  0  0
    5.4640   -1.1577    5.8219 C   0  0  0  0  0  0  0  0  0  0  0  0
    6.5809   -1.5818    5.1231 C   0  0  0  0  0  0  0  0  0  0  0  0
    6.8110   -2.9258    4.8635 C   0  0  0  0  0  0  0  0  0  0  0  0
    5.9614   -3.8500    5.4557 C   0  0  0  0  0  0  0  0  0  0  0  0
    1.7550    0.2954    7.5680 C   0  0  0  0  0  0  0  0  0  0  0  0
    1.6177    1.6956    7.5825 C   0  0  0  0  0  0  0  0  0  0  0  0
    2.5695    2.5756    7.1217 C   0  0  0  0  0  0  0  0  0  0  0  0
    3.7585    2.0381    6.6734 C   0  0  0  0  0  0  0  0  0  0  0  0
    0.6722   -0.4183    8.0912 O   0  0  0  0  0  0  0  0  0  0  0  0
    0.4200   -1.1878    5.9878 O   0  0  0  0  0  0  0  0  0  0  0  0
    3.9267   -4.4719    6.7021 C   0  0  0  0  0  0  0  0  0  0  0  0
    6.1695    1.0641    5.9091 O   0  0  0  0  0  0  0  0  0  0  0  0
    4.3050   -5.6078    6.9513 O   0  0  0  0  0  0  0  0  0  0  0  0
   -6.1187   -0.2639    3.1934 O   0  0  0  0  0  0  0  0  0  0  0  0
   -5.6717    3.6757    8.9646 O   0  0  0  0  0  0  0  0  0  0  0  0
   -1.5180   -2.3762    2.3437 C   0  0  0  0  0  0  0  0  0  0  0  0
   -1.2567   -3.8470    2.7123 C   0  0  0  0  0  0  0  0  0  0  0  0
   -0.1817   -1.6289    2.1327 C   0  0  0  0  0  0  0  0  0  0  0  0
   -2.3233   -2.3250    1.0321 C   0  0  0  0  0  0  0  0  0  0  0  0
   -1.3754    2.4447   11.4314 C   0  0  0  0  0  0  0  0  0  0  0  0
   -1.2070    3.9663   11.5886 C   0  0  0  0  0  0  0  0  0  0  0  0
   -2.3279    1.9119   12.5166 C   0  0  0  0  0  0  0  0  0  0  0  0
    0.0015    1.7790   11.6206 C   0  0  0  0  0  0  0  0  0  0  0  0
   -8.2005    4.2411    4.4105 C   0  0  0  0  0  0  0  0  0  0  0  0
   -7.4980    4.8569    3.1835 C   0  0  0  0  0  0  0  0  0  0  0  0
   -8.6272    5.3722    5.3631 C   0  0  0  0  0  0  0  0  0  0  0  0
   -9.4577    3.4778    3.9552 C   0  0  0  0  0  0  0  0  0  0  0  0
   -0.8779   -5.7296    7.4321 C   0  0  0  0  0  0  0  0  0  0  0  0
   -1.7499   -5.8752    6.1717 C   0  0  0  0  0  0  0  0  0  0  0  0
   -1.7466   -5.2556    8.6115 C   0  0  0  0  0  0  0  0  0  0  0  0
   -0.2859   -7.1069    7.7840 C   0  0  0  0  0  0  0  0  0  0  0  0
    2.3384    4.0911    7.0588 C   0  0  0  0  0  0  0  0  0  0  0  0
    3.3116    4.7940    8.0195 C   0  0  0  0  0  0  0  0  0  0  0  0
    2.5878    4.5742    5.6164 C   0  0  0  0  0  0  0  0  0  0  0  0
    0.8967    4.4629    7.4563 C   0  0  0  0  0  0  0  0  0  0  0  0
    7.9361   -3.3895    3.9288 C   0  0  0  0  0  0  0  0  0  0  0  0
    9.1162   -3.9010    4.7672 C   0  0  0  0  0  0  0  0  0  0  0  0
    7.4186   -4.5113    3.0047 C   0  0  0  0  0  0  0  0  0  0  0  0
    8.4059   -2.2382    3.0186 C   0  0  0  0  0  0  0  0  0  0  0  0
   -1.9271    2.0961   13.5136 H   0  0  0  0  0  0  0  0  0  0  0  0
   -2.4749    0.8379   12.4048 H   0  0  0  0  0  0  0  0  0  0  0  0
   -3.3040    2.3914   12.4563 H   0  0  0  0  0  0  0  0  0  0  0  0
    0.3954    1.9802   12.6168 H   0  0  0  0  0  0  0  0  0  0  0  0
    0.7243    2.1590   10.8992 H   0  0  0  0  0  0  0  0  0  0  0  0
   -0.0671    0.6979   11.5034 H   0  0  0  0  0  0  0  0  0  0  0  0
   -0.7781    4.2143   12.5596 H   0  0  0  0  0  0  0  0  0  0  0  0
   -2.1638    4.4800   11.5045 H   0  0  0  0  0  0  0  0  0  0  0  0
   -0.5468    4.3618   10.8171 H   0  0  0  0  0  0  0  0  0  0  0  0
    0.7354    5.5368    7.3691 H   0  0  0  0  0  0  0  0  0  0  0  0
    0.6869    4.1812    8.4874 H   0  0  0  0  0  0  0  0  0  0  0  0
    0.1732    3.9680    6.8113 H   0  0  0  0  0  0  0  0  0  0  0  0
    3.1712    5.8745    7.9958 H   0  0  0  0  0  0  0  0  0  0  0  0
    4.3466    4.5842    7.7527 H   0  0  0  0  0  0  0  0  0  0  0  0
    3.1542    4.4545    9.0431 H   0  0  0  0  0  0  0  0  0  0  0  0
    2.3477    5.6311    5.5088 H   0  0  0  0  0  0  0  0  0  0  0  0
    1.9757    4.0135    4.9120 H   0  0  0  0  0  0  0  0  0  0  0  0
    3.6281    4.4383    5.3254 H   0  0  0  0  0  0  0  0  0  0  0  0
    9.9321   -4.2388    4.1286 H   0  0  0  0  0  0  0  0  0  0  0  0
    8.8116   -4.7361    5.3973 H   0  0  0  0  0  0  0  0  0  0  0  0
    9.4978   -3.1130    5.4159 H   0  0  0  0  0  0  0  0  0  0  0  0
    8.1894   -4.8174    2.2989 H   0  0  0  0  0  0  0  0  0  0  0  0
    6.5658   -4.1569    2.4239 H   0  0  0  0  0  0  0  0  0  0  0  0
    7.1128   -5.3932    3.5641 H   0  0  0  0  0  0  0  0  0  0  0  0
    9.1420   -2.5966    2.3013 H   0  0  0  0  0  0  0  0  0  0  0  0
    8.8650   -1.4304    3.5857 H   0  0  0  0  0  0  0  0  0  0  0  0
    7.5640   -1.8376    2.4520 H   0  0  0  0  0  0  0  0  0  0  0  0
    0.4182   -2.1102    1.3623 H   0  0  0  0  0  0  0  0  0  0  0  0
    0.4095   -1.5894    3.0467 H   0  0  0  0  0  0  0  0  0  0  0  0
   -0.3543   -0.6041    1.7986 H   0  0  0  0  0  0  0  0  0  0  0  0
   -1.7639   -2.7741    0.2132 H   0  0  0  0  0  0  0  0  0  0  0  0
   -2.5132   -1.2922    0.7398 H   0  0  0  0  0  0  0  0  0  0  0  0
   -3.2746   -2.8473    1.1213 H   0  0  0  0  0  0  0  0  0  0  0  0
   -0.8169   -4.3876    1.8785 H   0  0  0  0  0  0  0  0  0  0  0  0
   -2.1878   -4.3470    2.9765 H   0  0  0  0  0  0  0  0  0  0  0  0
   -0.5764   -3.9309    3.5584 H   0  0  0  0  0  0  0  0  0  0  0  0
   -2.5308   -6.6206    6.3204 H   0  0  0  0  0  0  0  0  0  0  0  0
   -1.1452   -6.1839    5.3196 H   0  0  0  0  0  0  0  0  0  0  0  0
   -2.2325   -4.9333    5.9142 H   0  0  0  0  0  0  0  0  0  0  0  0
   -1.0770   -7.8246    8.0017 H   0  0  0  0  0  0  0  0  0  0  0  0
    0.3559   -7.0435    8.6624 H   0  0  0  0  0  0  0  0  0  0  0  0
    0.2999   -7.5050    6.9561 H   0  0  0  0  0  0  0  0  0  0  0  0
   -2.5271   -5.9818    8.8384 H   0  0  0  0  0  0  0  0  0  0  0  0
   -2.2307   -4.3054    8.3907 H   0  0  0  0  0  0  0  0  0  0  0  0
   -1.1394   -5.1208    9.5061 H   0  0  0  0  0  0  0  0  0  0  0  0
   -8.1595    5.5409    2.6536 H   0  0  0  0  0  0  0  0  0  0  0  0
   -7.1748    4.0869    2.4822 H   0  0  0  0  0  0  0  0  0  0  0  0
   -6.6094    5.4083    3.4879 H   0  0  0  0  0  0  0  0  0  0  0  0
  -10.1804    4.1545    3.5003 H   0  0  0  0  0  0  0  0  0  0  0  0
   -9.9386    2.9877    4.8011 H   0  0  0  0  0  0  0  0  0  0  0  0
   -9.2127    2.7140    3.2185 H   0  0  0  0  0  0  0  0  0  0  0  0
   -9.3300    6.0466    4.8738 H   0  0  0  0  0  0  0  0  0  0  0  0
   -7.7680    5.9634    5.6783 H   0  0  0  0  0  0  0  0  0  0  0  0
   -9.1143    4.9714    6.2517 H   0  0  0  0  0  0  0  0  0  0  0  0
   -7.0041    4.3013    6.9534 H   0  0  0  0  0  0  0  0  0  0  0  0
   -7.1518    1.9672    3.3810 H   0  0  0  0  0  0  0  0  0  0  0  0
   -4.0063   -1.0940    2.3563 H   0  0  0  0  0  0  0  0  0  0  0  0
   -0.8562   -2.2461    4.9144 H   0  0  0  0  0  0  0  0  0  0  0  0
   -3.7641    3.2393   10.3909 H   0  0  0  0  0  0  0  0  0  0  0  0
   -0.2820    1.0766    9.3027 H   0  0  0  0  0  0  0  0  0  0  0  0
    0.6820    2.0908    7.9160 H   0  0  0  0  0  0  0  0  0  0  0  0
    4.5490    2.6838    6.3358 H   0  0  0  0  0  0  0  0  0  0  0  0
    7.2474   -0.8263    4.7501 H   0  0  0  0  0  0  0  0  0  0  0  0
    6.1494   -4.9028    5.3539 H   0  0  0  0  0  0  0  0  0  0  0  0
    1.8941   -6.0319    7.2540 H   0  0  0  0  0  0  0  0  0  0  0  0
   -1.1725   -3.1309    6.8474 H   0  0  0  0  0  0  0  0  0  0  0  0
  1  2  2  0  0  0  0
  1133  1  0  0  0  0
  2  3  1  0  0  0  0
  2 22  1  0  0  0  0
  3  4  2  0  0  0  0
  3  7  1  0  0  0  0
  4  5  1  0  0  0  0
  5  6  2  0  0  0  0
  5132  1  0  0  0  0
  6 52  1  0  0  0  0
  6  1  1  0  0  0  0
  7  8  1  0  0  0  0
  7 11  1  0  0  0  0
  8  9  2  0  0  0  0
  9 10  1  0  0  0  0
 10  4  1  0  0  0  0
 10 50  2  0  0  0  0
 11 12  2  0  0  0  0
 11 18  1  0  0  0  0
 13 14  1  0  0  0  0
 13 12  1  0  0  0  0
 13 51  2  0  0  0  0
 14  8  1  0  0  0  0
 14 15  2  0  0  0  0
 15 16  1  0  0  0  0
 15130  1  0  0  0  0
 16 60  1  0  0  0  0
 16 17  2  0  0  0  0
 17  9  1  0  0  0  0
 17131  1  0  0  0  0
 18 19  2  0  0  0  0
 18 23  1  0  0  0  0
 19 20  1  0  0  0  0
 19135  1  0  0  0  0
 20 56  1  0  0  0  0
 20 21  2  0  0  0  0
 21 12  1  0  0  0  0
 21134  1  0  0  0  0
 24 23  1  0  0  0  0
 24 22  1  0  0  0  0
 25 26  2  0  0  0  0
 25141  1  0  0  0  0
 26 27  1  0  0  0  0
 26 46  1  0  0  0  0
 27 28  2  0  0  0  0
 27 31  1  0  0  0  0
 28 29  1  0  0  0  0
 28 47  1  0  0  0  0
 29 30  2  0  0  0  0
 29140  1  0  0  0  0
 30 64  1  0  0  0  0
 30 25  1  0  0  0  0
 31 32  1  0  0  0  0
 32 33  2  0  0  0  0
 34 35  2  0  0  0  0
 34 41  1  0  0  0  0
 34 31  1  0  0  0  0
 36 37  1  0  0  0  0
 36 35  1  0  0  0  0
 36 48  2  0  0  0  0
 37 32  1  0  0  0  0
 37 38  2  0  0  0  0
 38 39  1  0  0  0  0
 38138  1  0  0  0  0
 39 72  1  0  0  0  0
 39 40  2  0  0  0  0
 40 33  1  0  0  0  0
 40139  1  0  0  0  0
 41 42  2  0  0  0  0
 41 45  1  0  0  0  0
 42 43  1  0  0  0  0
 42136  1  0  0  0  0
 43 68  1  0  0  0  0
 43 44  2  0  0  0  0
 44 35  1  0  0  0  0
 44137  1  0  0  0  0
 45 24  1  0  0  0  0
 46 24  1  0  0  0  0
 47 33  1  0  0  0  0
 47 49  2  0  0  0  0
 52 53  1  0  0  0  0
 52 54  1  0  0  0  0
 52 55  1  0  0  0  0
 53109  1  0  0  0  0
 53110  1  0  0  0  0
 53111  1  0  0  0  0
 54103  1  0  0  0  0
 54104  1  0  0  0  0
 54105  1  0  0  0  0
 55106  1  0  0  0  0
 55107  1  0  0  0  0
 55108  1  0  0  0  0
 56 57  1  0  0  0  0
 56 58  1  0  0  0  0
 56 59  1  0  0  0  0
 57 82  1  0  0  0  0
 57 83  1  0  0  0  0
 57 84  1  0  0  0  0
 58 76  1  0  0  0  0
 58 77  1  0  0  0  0
 58 78  1  0  0  0  0
 59 79  1  0  0  0  0
 59 80  1  0  0  0  0
 59 81  1  0  0  0  0
 60 61  1  0  0  0  0
 60 62  1  0  0  0  0
 60 63  1  0  0  0  0
 61121  1  0  0  0  0
 61122  1  0  0  0  0
 61123  1  0  0  0  0
 62127  1  0  0  0  0
 62128  1  0  0  0  0
 62129  1  0  0  0  0
 63124  1  0  0  0  0
 63125  1  0  0  0  0
 63126  1  0  0  0  0
 64 65  1  0  0  0  0
 64 66  1  0  0  0  0
 64 67  1  0  0  0  0
 65112  1  0  0  0  0
 65113  1  0  0  0  0
 65114  1  0  0  0  0
 66118  1  0  0  0  0
 66119  1  0  0  0  0
 66120  1  0  0  0  0
 67115  1  0  0  0  0
 67116  1  0  0  0  0
 67117  1  0  0  0  0
 68 69  1  0  0  0  0
 68 70  1  0  0  0  0
 68 71  1  0  0  0  0
 69 88  1  0  0  0  0
 69 89  1  0  0  0  0
 69 90  1  0  0  0  0
 70 91  1  0  0  0  0
 70 92  1  0  0  0  0
 70 93  1  0  0  0  0
 71 85  1  0  0  0  0
 71 86  1  0  0  0  0
 71 87  1  0  0  0  0
 72 73  1  0  0  0  0
 72 74  1  0  0  0  0
 72 75  1  0  0  0  0
 73 94  1  0  0  0  0
 73 95  1  0  0  0  0
 73 96  1  0  0  0  0
 74 97  1  0  0  0  0
 74 98  1  0  0  0  0
 74 99  1  0  0  0  0
 75100  1  0  0  0  0
 75101  1  0  0  0  0
 75102  1  0  0  0  0
142143  2  0  0  0  0
142274  1  0  0  0  0
143144  1  0  0  0  0
143163  1  0  0  0  0
144145  2  0  0  0  0
144148  1  0  0  0  0
145146  1  0  0  0  0
146147  2  0  0  0  0
146273  1  0  0  0  0
147193  1  0  0  0  0
147142  1  0  0  0  0
148149  1  0  0  0  0
148152  1  0  0  0  0
149150  2  0  0  0  0
150151  1  0  0  0  0
151145  1  0  0  0  0
151191  2  0  0  0  0
152153  2  0  0  0  0
152159  1  0  0  0  0
154155  1  0  0  0  0
154153  1  0  0  0  0
154192  2  0  0  0  0
155149  1  0  0  0  0
155156  2  0  0  0  0
156157  1  0  0  0  0
156271  1  0  0  0  0
157201  1  0  0  0  0
157158  2  0  0  0  0
158150  1  0  0  0  0
158272  1  0  0  0  0
159160  2  0  0  0  0
159164  1  0  0  0  0
160161  1  0  0  0  0
160276  1  0  0  0  0
161197  1  0  0  0  0
161162  2  0  0  0  0
162153  1  0  0  0  0
162275  1  0  0  0  0
165164  1  0  0  0  0
165163  1  0  0  0  0
166167  2  0  0  0  0
166282  1  0  0  0  0
167168  1  0  0  0  0
167187  1  0  0  0  0
168169  2  0  0  0  0
168172  1  0  0  0  0
169170  1  0  0  0  0
169188  1  0  0  0  0
170171  2  0  0  0  0
170281  1  0  0  0  0
171205  1  0  0  0  0
171166  1  0  0  0  0
172173  1  0  0  0  0
173174  2  0  0  0  0
175176  2  0  0  0  0
175182  1  0  0  0  0
175172  1  0  0  0  0
177178  1  0  0  0  0
177176  1  0  0  0  0
177189  2  0  0  0  0
178173  1  0  0  0  0
178179  2  0  0  0  0
179180  1  0  0  0  0
179279  1  0  0  0  0
180213  1  0  0  0  0
180181  2  0  0  0  0
181174  1  0  0  0  0
181280  1  0  0  0  0
182183  2  0  0  0  0
182186  1  0  0  0  0
183184  1  0  0  0  0
183277  1  0  0  0  0
184209  1  0  0  0  0
184185  2  0  0  0  0
185176  1  0  0  0  0
185278  1  0  0  0  0
186165  1  0  0  0  0
187165  1  0  0  0  0
188174  1  0  0  0  0
188190  2  0  0  0  0
193194  1  0  0  0  0
193195  1  0  0  0  0
193196  1  0  0  0  0
194250  1  0  0  0  0
194251  1  0  0  0  0
194252  1  0  0  0  0
195244  1  0  0  0  0
195245  1  0  0  0  0
195246  1  0  0  0  0
196247  1  0  0  0  0
196248  1  0  0  0  0
196249  1  0  0  0  0
197198  1  0  0  0  0
197199  1  0  0  0  0
197200  1  0  0  0  0
198223  1  0  0  0  0
198224  1  0  0  0  0
198225  1  0  0  0  0
199217  1  0  0  0  0
199218  1  0  0  0  0
199219  1  0  0  0  0
200220  1  0  0  0  0
200221  1  0  0  0  0
200222  1  0  0  0  0
201202  1  0  0  0  0
201203  1  0  0  0  0
201204  1  0  0  0  0
202262  1  0  0  0  0
202263  1  0  0  0  0
202264  1  0  0  0  0
203268  1  0  0  0  0
203269  1  0  0  0  0
203270  1  0  0  0  0
204265  1  0  0  0  0
204266  1  0  0  0  0
204267  1  0  0  0  0
205206  1  0  0  0  0
205207  1  0  0  0  0
205208  1  0  0  0  0
206253  1  0  0  0  0
206254  1  0  0  0  0
206255  1  0  0  0  0
207259  1  0  0  0  0
207260  1  0  0  0  0
207261  1  0  0  0  0
208256  1  0  0  0  0
208257  1  0  0  0  0
208258  1  0  0  0  0
209210  1  0  0  0  0
209211  1  0  0  0  0
209212  1  0  0  0  0
210229  1  0  0  0  0
210230  1  0  0  0  0
210231  1  0  0  0  0
211232  1  0  0  0  0
211233  1  0  0  0  0
211234  1  0  0  0  0
212226  1  0  0  0  0
212227  1  0  0  0  0
212228  1  0  0  0  0
213214  1  0  0  0  0
213215  1  0  0  0  0
213216  1  0  0  0  0
214235  1  0  0  0  0
214236  1  0  0  0  0
214237  1  0  0  0  0
215238  1  0  0  0  0
215239  1  0  0  0  0
215240  1  0  0  0  0
216241  1  0  0  0  0
216242  1  0  0  0  0
216243  1  0  0  0  0
M  CHG  1  24  -1
M  CHG  1  31  -1
M  CHG  1 165  -1
M  CHG  1 172  -1
M  END
