 energy: -206.677742963071 gnorm: 0.000216899888 xtb: 6.7.1 (edcfbbe)
          03132513453D

101112  0     0  0            999 V2000
   -0.3747    3.7936    1.8710 C   0  0  0  0  0  0  0  0  0  0  0  0
    0.2381    2.5463    1.7751 C   0  0  0  0  0  0  0  0  0  0  0  0
    1.5680    2.4527    1.2993 C   0  0  0  0  0  0  0  0  0  0  0  0
    2.2264    3.6944    0.9572 C   0  0  0  0  0  0  0  0  0  0  0  0
    1.4924    4.9087    0.8868 C   0  0  0  0  0  0  0  0  0  0  0  0
    0.2140    4.9461    1.3580 C   0  0  0  0  0  0  0  0  0  0  0  0
    2.3597    1.2563    1.2883 C   0  0  0  0  0  0  0  0  0  0  0  0
    3.7588    1.4667    1.2884 C   0  0  0  0  0  0  0  0  0  0  0  0
    4.3033    2.7528    1.0011 C   0  0  0  0  0  0  0  0  0  0  0  0
    3.5306    3.8062    0.7715 N   0  0  0  0  0  0  0  0  0  0  0  0
    1.9347   -0.1221    1.2960 C   0  0  0  0  0  0  0  0  0  0  0  0
    2.9273   -1.0846    1.7247 C   0  0  0  0  0  0  0  0  0  0  0  0
    4.2070   -0.8038    1.9098 N   0  0  0  0  0  0  0  0  0  0  0  0
    4.6556    0.4032    1.5896 C   0  0  0  0  0  0  0  0  0  0  0  0
    6.0489    0.6417    1.6241 C   0  0  0  0  0  0  0  0  0  0  0  0
    6.5473    1.8634    1.2254 C   0  0  0  0  0  0  0  0  0  0  0  0
    5.7042    2.9011    0.8893 C   0  0  0  0  0  0  0  0  0  0  0  0
    0.7300   -0.6580    0.7641 C   0  0  0  0  0  0  0  0  0  0  0  0
    0.5835   -2.0508    0.6789 C   0  0  0  0  0  0  0  0  0  0  0  0
    1.4843   -2.9410    1.2433 C   0  0  0  0  0  0  0  0  0  0  0  0
    2.6283   -2.4707    1.8155 C   0  0  0  0  0  0  0  0  0  0  0  0
   -0.4720    1.4784    2.1376 O   0  0  0  0  0  0  0  0  0  0  0  0
   -0.2575    0.0606    0.2331 O   0  0  0  0  0  0  0  0  0  0  0  0
   -0.8696    6.4212    1.0345 S   0  0  0  0  0  0  0  0  0  0  0  0
    1.3310   -4.7821    1.1622 S   0  0  0  0  0  0  0  0  0  0  0  0
    8.3974    2.1663    1.2020 S   0  0  0  0  0  0  0  0  0  0  0  0
   -2.1081   -2.2800    1.8496 C   0  0  0  0  0  0  0  0  0  0  0  0
   -2.5992   -1.1427    1.2107 C   0  0  0  0  0  0  0  0  0  0  0  0
   -3.4179   -1.2689    0.0553 C   0  0  0  0  0  0  0  0  0  0  0  0
   -3.6022   -2.6112   -0.4506 C   0  0  0  0  0  0  0  0  0  0  0  0
   -3.0313   -3.7342    0.2036 C   0  0  0  0  0  0  0  0  0  0  0  0
   -2.3266   -3.5597    1.3551 C   0  0  0  0  0  0  0  0  0  0  0  0
   -4.1700   -0.2159   -0.5716 C   0  0  0  0  0  0  0  0  0  0  0  0
   -5.1112   -0.6361   -1.5421 C   0  0  0  0  0  0  0  0  0  0  0  0
   -5.0998   -1.9684   -2.0484 C   0  0  0  0  0  0  0  0  0  0  0  0
   -4.3406   -2.9099   -1.5108 N   0  0  0  0  0  0  0  0  0  0  0  0
   -4.2028    1.1973   -0.2600 C   0  0  0  0  0  0  0  0  0  0  0  0
   -5.4680    1.8571   -0.5354 C   0  0  0  0  0  0  0  0  0  0  0  0
   -6.3630    1.3946   -1.3876 N   0  0  0  0  0  0  0  0  0  0  0  0
   -6.1343    0.2406   -2.0050 C   0  0  0  0  0  0  0  0  0  0  0  0
   -7.0089   -0.1699   -3.0303 C   0  0  0  0  0  0  0  0  0  0  0  0
   -6.8608   -1.4117   -3.6177 C   0  0  0  0  0  0  0  0  0  0  0  0
   -5.9277   -2.3080   -3.1474 C   0  0  0  0  0  0  0  0  0  0  0  0
   -3.1490    2.0556    0.1582 C   0  0  0  0  0  0  0  0  0  0  0  0
   -3.4638    3.3631    0.5511 C   0  0  0  0  0  0  0  0  0  0  0  0
   -4.7555    3.8745    0.5426 C   0  0  0  0  0  0  0  0  0  0  0  0
   -5.7625    3.1458   -0.0135 C   0  0  0  0  0  0  0  0  0  0  0  0
   -2.2432    0.0288    1.7298 O   0  0  0  0  0  0  0  0  0  0  0  0
   -1.8553    1.7480    0.1300 O   0  0  0  0  0  0  0  0  0  0  0  0
   -1.5294   -4.9886    2.1901 S   0  0  0  0  0  0  0  0  0  0  0  0
   -5.1115    5.5179    1.3449 S   0  0  0  0  0  0  0  0  0  0  0  0
   -8.0127   -1.9008   -5.0136 S   0  0  0  0  0  0  0  0  0  0  0  0
   -1.2165    0.8213    1.0574 B   0  0  0  0  0  0  0  0  0  0  0  0
    8.5036    3.3804    0.4331 O   0  0  0  0  0  0  0  0  0  0  0  0
    8.4866    2.5558    2.8093 O   0  0  0  0  0  0  0  0  0  0  0  0
    8.2076    3.8839    3.1832 C   0  0  0  0  0  0  0  0  0  0  0  0
   -0.1411   -4.8526    0.3145 O   0  0  0  0  0  0  0  0  0  0  0  0
   -0.1066   -5.2868   -1.0271 C   0  0  0  0  0  0  0  0  0  0  0  0
    2.3459   -5.0904    0.1745 O   0  0  0  0  0  0  0  0  0  0  0  0
   -0.3475   -4.3712    2.7962 O   0  0  0  0  0  0  0  0  0  0  0  0
   -2.6363   -5.1563    3.3932 O   0  0  0  0  0  0  0  0  0  0  0  0
   -2.6171   -4.2869    4.5030 C   0  0  0  0  0  0  0  0  0  0  0  0
   -8.9114   -0.7752   -5.0776 O   0  0  0  0  0  0  0  0  0  0  0  0
   -8.7586   -3.1242   -4.1846 O   0  0  0  0  0  0  0  0  0  0  0  0
   -9.8451   -2.7952   -3.3508 C   0  0  0  0  0  0  0  0  0  0  0  0
   -6.3668    5.9047    0.7489 O   0  0  0  0  0  0  0  0  0  0  0  0
   -3.8892    6.3886    0.6371 O   0  0  0  0  0  0  0  0  0  0  0  0
   -4.1461    6.9529   -0.6293 C   0  0  0  0  0  0  0  0  0  0  0  0
    0.0568    7.4968    0.7892 O   0  0  0  0  0  0  0  0  0  0  0  0
   -1.3276    5.7944   -0.4489 O   0  0  0  0  0  0  0  0  0  0  0  0
   -0.4633    6.0110   -1.5344 C   0  0  0  0  0  0  0  0  0  0  0  0
  -10.5787   -3.5956   -3.4300 H   0  0  0  0  0  0  0  0  0  0  0  0
  -10.2963   -1.8537   -3.6794 H   0  0  0  0  0  0  0  0  0  0  0  0
   -9.5099   -2.6982   -2.3146 H   0  0  0  0  0  0  0  0  0  0  0  0
   -3.6248    7.9070   -0.6778 H   0  0  0  0  0  0  0  0  0  0  0  0
   -5.2211    7.1156   -0.7535 H   0  0  0  0  0  0  0  0  0  0  0  0
   -3.7838    6.2866   -1.4152 H   0  0  0  0  0  0  0  0  0  0  0  0
   -1.0721    6.1350   -2.4291 H   0  0  0  0  0  0  0  0  0  0  0  0
    0.2098    5.1573   -1.6607 H   0  0  0  0  0  0  0  0  0  0  0  0
    0.1252    6.9190   -1.3683 H   0  0  0  0  0  0  0  0  0  0  0  0
   -2.9943   -4.8436    5.3597 H   0  0  0  0  0  0  0  0  0  0  0  0
   -3.2543   -3.4173    4.3183 H   0  0  0  0  0  0  0  0  0  0  0  0
   -1.5925   -3.9608    4.6994 H   0  0  0  0  0  0  0  0  0  0  0  0
   -0.6423   -6.2324   -1.1180 H   0  0  0  0  0  0  0  0  0  0  0  0
    0.9356   -5.4265   -1.3317 H   0  0  0  0  0  0  0  0  0  0  0  0
   -0.5745   -4.5303   -1.6599 H   0  0  0  0  0  0  0  0  0  0  0  0
    8.8359    4.1245    4.0387 H   0  0  0  0  0  0  0  0  0  0  0  0
    7.1528    3.9876    3.4551 H   0  0  0  0  0  0  0  0  0  0  0  0
    8.4398    4.5626    2.3566 H   0  0  0  0  0  0  0  0  0  0  0  0
   -7.8046    0.4898   -3.3460 H   0  0  0  0  0  0  0  0  0  0  0  0
   -5.8207   -3.2909   -3.5799 H   0  0  0  0  0  0  0  0  0  0  0  0
   -6.7505    3.5527   -0.1598 H   0  0  0  0  0  0  0  0  0  0  0  0
   -3.2103   -4.7063   -0.2242 H   0  0  0  0  0  0  0  0  0  0  0  0
   -2.6509    4.0062    0.8420 H   0  0  0  0  0  0  0  0  0  0  0  0
   -1.4818   -2.1370    2.7173 H   0  0  0  0  0  0  0  0  0  0  0  0
   -1.3506    3.8270    2.3285 H   0  0  0  0  0  0  0  0  0  0  0  0
   -0.2842   -2.4200    0.1579 H   0  0  0  0  0  0  0  0  0  0  0  0
    3.3901   -3.1249    2.2062 H   0  0  0  0  0  0  0  0  0  0  0  0
    1.9942    5.7976    0.5380 H   0  0  0  0  0  0  0  0  0  0  0  0
    6.1059    3.8383    0.5306 H   0  0  0  0  0  0  0  0  0  0  0  0
    6.6945   -0.1548    1.9597 H   0  0  0  0  0  0  0  0  0  0  0  0
  1  2  2  0  0  0  0
  1 96  1  0  0  0  0
  2  3  1  0  0  0  0
  3  4  2  0  0  0  0
  3  7  1  0  0  0  0
  4  5  1  0  0  0  0
  5  6  2  0  0  0  0
  5 99  1  0  0  0  0
  6  1  1  0  0  0  0
  6 24  1  0  0  0  0
  7  8  1  0  0  0  0
  7 11  2  0  0  0  0
  8  9  1  0  0  0  0
  9 10  2  0  0  0  0
 10  4  1  0  0  0  0
 11 12  1  0  0  0  0
 11 18  1  0  0  0  0
 12 13  2  0  0  0  0
 13 14  1  0  0  0  0
 14  8  1  0  0  0  0
 14 15  2  0  0  0  0
 15 16  1  0  0  0  0
 15101  1  0  0  0  0
 16 17  2  0  0  0  0
 16 26  1  0  0  0  0
 17  9  1  0  0  0  0
 17100  1  0  0  0  0
 18 19  2  0  0  0  0
 19 20  1  0  0  0  0
 19 97  1  0  0  0  0
 20 21  2  0  0  0  0
 20 25  1  0  0  0  0
 21 12  1  0  0  0  0
 21 98  1  0  0  0  0
 22  2  1  0  0  0  0
 23 18  1  0  0  0  0
 24 69  2  0  0  0  0
 24 70  1  0  0  0  0
 25 57  1  0  0  0  0
 25 59  2  0  0  0  0
 26 54  2  0  0  0  0
 26 55  1  0  0  0  0
 27 28  2  0  0  0  0
 27 95  1  0  0  0  0
 28 29  1  0  0  0  0
 28 48  1  0  0  0  0
 29 30  2  0  0  0  0
 29 33  1  0  0  0  0
 30 31  1  0  0  0  0
 31 32  2  0  0  0  0
 31 93  1  0  0  0  0
 32 27  1  0  0  0  0
 32 50  1  0  0  0  0
 33 37  2  0  0  0  0
 34 33  1  0  0  0  0
 34 35  1  0  0  0  0
 35 36  2  0  0  0  0
 36 30  1  0  0  0  0
 37 38  1  0  0  0  0
 37 44  1  0  0  0  0
 38 39  2  0  0  0  0
 39 40  1  0  0  0  0
 40 34  1  0  0  0  0
 40 41  2  0  0  0  0
 41 42  1  0  0  0  0
 41 90  1  0  0  0  0
 42 43  2  0  0  0  0
 42 52  1  0  0  0  0
 43 35  1  0  0  0  0
 43 91  1  0  0  0  0
 44 45  2  0  0  0  0
 44 49  1  0  0  0  0
 45 46  1  0  0  0  0
 45 94  1  0  0  0  0
 46 47  2  0  0  0  0
 46 51  1  0  0  0  0
 47 38  1  0  0  0  0
 47 92  1  0  0  0  0
 50 60  2  0  0  0  0
 50 61  1  0  0  0  0
 51 66  2  0  0  0  0
 51 67  1  0  0  0  0
 52 63  2  0  0  0  0
 52 64  1  0  0  0  0
 53 49  1  0  0  0  0
 53 22  1  0  0  0  0
 53 48  1  0  0  0  0
 53 23  1  0  0  0  0
 55 56  1  0  0  0  0
 56 87  1  0  0  0  0
 56 88  1  0  0  0  0
 56 89  1  0  0  0  0
 57 58  1  0  0  0  0
 58 84  1  0  0  0  0
 58 85  1  0  0  0  0
 58 86  1  0  0  0  0
 61 62  1  0  0  0  0
 62 81  1  0  0  0  0
 62 82  1  0  0  0  0
 62 83  1  0  0  0  0
 64 65  1  0  0  0  0
 65 72  1  0  0  0  0
 65 73  1  0  0  0  0
 65 74  1  0  0  0  0
 67 68  1  0  0  0  0
 68 75  1  0  0  0  0
 68 76  1  0  0  0  0
 68 77  1  0  0  0  0
 70 71  1  0  0  0  0
 71 78  1  0  0  0  0
 71 79  1  0  0  0  0
 71 80  1  0  0  0  0
M  CHG  1   1   1
M  END
