 energy: -207.101544283462 gnorm: 0.000175101456 xtb: 6.7.1 (edcfbbe)
          03132513383D

101112  0     0  0            999 V2000
   -0.3789    3.8443    1.8532 C   0  0  0  0  0  0  0  0  0  0  0  0
    0.2359    2.6000    1.7759 C   0  0  0  0  0  0  0  0  0  0  0  0
    1.5626    2.5042    1.2892 C   0  0  0  0  0  0  0  0  0  0  0  0
    2.2153    3.7354    0.9115 C   0  0  0  0  0  0  0  0  0  0  0  0
    1.4711    4.9382    0.8089 C   0  0  0  0  0  0  0  0  0  0  0  0
    0.1984    4.9802    1.2931 C   0  0  0  0  0  0  0  0  0  0  0  0
    2.3542    1.3087    1.2917 C   0  0  0  0  0  0  0  0  0  0  0  0
    3.7523    1.5199    1.2810 C   0  0  0  0  0  0  0  0  0  0  0  0
    4.2932    2.7967    0.9500 C   0  0  0  0  0  0  0  0  0  0  0  0
    3.5184    3.8443    0.6908 N   0  0  0  0  0  0  0  0  0  0  0  0
    1.9274   -0.0683    1.3169 C   0  0  0  0  0  0  0  0  0  0  0  0
    2.9207   -1.0250    1.7502 C   0  0  0  0  0  0  0  0  0  0  0  0
    4.1993   -0.7391    1.9580 N   0  0  0  0  0  0  0  0  0  0  0  0
    4.6474    0.4648    1.6158 C   0  0  0  0  0  0  0  0  0  0  0  0
    6.0391    0.6958    1.6170 C   0  0  0  0  0  0  0  0  0  0  0  0
    6.5344    1.9207    1.2182 C   0  0  0  0  0  0  0  0  0  0  0  0
    5.6938    2.9560    0.8719 C   0  0  0  0  0  0  0  0  0  0  0  0
    0.7176   -0.6038    0.7963 C   0  0  0  0  0  0  0  0  0  0  0  0
    0.5731   -1.9959    0.7031 C   0  0  0  0  0  0  0  0  0  0  0  0
    1.4755   -2.8836    1.2723 C   0  0  0  0  0  0  0  0  0  0  0  0
    2.6157   -2.4059    1.8496 C   0  0  0  0  0  0  0  0  0  0  0  0
   -0.4575    1.5326    2.1803 O   0  0  0  0  0  0  0  0  0  0  0  0
   -0.2676    0.1231    0.2650 O   0  0  0  0  0  0  0  0  0  0  0  0
   -0.8833    6.4420    0.9875 S   0  0  0  0  0  0  0  0  0  0  0  0
    1.3515   -4.7154    1.2061 S   0  0  0  0  0  0  0  0  0  0  0  0
    8.3654    2.1873    1.2059 S   0  0  0  0  0  0  0  0  0  0  0  0
   -2.0839   -2.2412    1.9260 C   0  0  0  0  0  0  0  0  0  0  0  0
   -2.5621   -1.1154    1.2591 C   0  0  0  0  0  0  0  0  0  0  0  0
   -3.3474   -1.2580    0.0814 C   0  0  0  0  0  0  0  0  0  0  0  0
   -3.4990   -2.6038   -0.4211 C   0  0  0  0  0  0  0  0  0  0  0  0
   -2.9577   -3.7144    0.2718 C   0  0  0  0  0  0  0  0  0  0  0  0
   -2.2898   -3.5266    1.4438 C   0  0  0  0  0  0  0  0  0  0  0  0
   -4.0966   -0.2226   -0.5814 C   0  0  0  0  0  0  0  0  0  0  0  0
   -4.9739   -0.6602   -1.6018 C   0  0  0  0  0  0  0  0  0  0  0  0
   -4.8906   -1.9840   -2.1227 C   0  0  0  0  0  0  0  0  0  0  0  0
   -4.1545   -2.9164   -1.5351 N   0  0  0  0  0  0  0  0  0  0  0  0
   -4.1936    1.1817   -0.2530 C   0  0  0  0  0  0  0  0  0  0  0  0
   -5.4634    1.8021   -0.5784 C   0  0  0  0  0  0  0  0  0  0  0  0
   -6.3040    1.3245   -1.4828 N   0  0  0  0  0  0  0  0  0  0  0  0
   -5.9972    0.1928   -2.1080 C   0  0  0  0  0  0  0  0  0  0  0  0
   -6.7632   -0.2091   -3.2198 C   0  0  0  0  0  0  0  0  0  0  0  0
   -6.5482   -1.4427   -3.8001 C   0  0  0  0  0  0  0  0  0  0  0  0
   -5.6468   -2.3366   -3.2648 C   0  0  0  0  0  0  0  0  0  0  0  0
   -3.1939    2.0607    0.2495 C   0  0  0  0  0  0  0  0  0  0  0  0
   -3.5808    3.3234    0.7036 C   0  0  0  0  0  0  0  0  0  0  0  0
   -4.8940    3.7760    0.6512 C   0  0  0  0  0  0  0  0  0  0  0  0
   -5.8347    3.0475   -0.0109 C   0  0  0  0  0  0  0  0  0  0  0  0
   -2.2319    0.0628    1.7868 O   0  0  0  0  0  0  0  0  0  0  0  0
   -1.8845    1.8113    0.2134 O   0  0  0  0  0  0  0  0  0  0  0  0
   -1.5136   -4.9497    2.2832 S   0  0  0  0  0  0  0  0  0  0  0  0
   -5.3358    5.3504    1.5055 S   0  0  0  0  0  0  0  0  0  0  0  0
   -7.5504   -1.9523   -5.2685 S   0  0  0  0  0  0  0  0  0  0  0  0
   -1.2215    0.8744    1.1094 B   0  0  0  0  0  0  0  0  0  0  0  0
    8.5140    3.4819    0.5788 O   0  0  0  0  0  0  0  0  0  0  0  0
    8.5016    2.3942    2.8559 O   0  0  0  0  0  0  0  0  0  0  0  0
    8.1119    3.6405    3.3747 C   0  0  0  0  0  0  0  0  0  0  0  0
   -0.1405   -4.8276    0.3888 O   0  0  0  0  0  0  0  0  0  0  0  0
   -0.1144   -5.1716   -0.9750 C   0  0  0  0  0  0  0  0  0  0  0  0
    2.3515   -5.0277    0.1971 O   0  0  0  0  0  0  0  0  0  0  0  0
   -0.3421   -4.3553    2.9251 O   0  0  0  0  0  0  0  0  0  0  0  0
   -2.6577   -5.1219    3.4788 O   0  0  0  0  0  0  0  0  0  0  0  0
   -2.6677   -4.2087    4.5484 C   0  0  0  0  0  0  0  0  0  0  0  0
   -8.3201   -0.7678   -5.5793 O   0  0  0  0  0  0  0  0  0  0  0  0
   -8.5374   -3.0078   -4.4349 O   0  0  0  0  0  0  0  0  0  0  0  0
   -9.5646   -2.4402   -3.6617 C   0  0  0  0  0  0  0  0  0  0  0  0
   -6.6346    5.6824    0.9575 O   0  0  0  0  0  0  0  0  0  0  0  0
   -4.1929    6.3248    0.7905 O   0  0  0  0  0  0  0  0  0  0  0  0
   -4.4538    6.7340   -0.5294 C   0  0  0  0  0  0  0  0  0  0  0  0
    0.0338    7.4775    0.5632 O   0  0  0  0  0  0  0  0  0  0  0  0
   -1.5542    5.7603   -0.3856 O   0  0  0  0  0  0  0  0  0  0  0  0
   -0.7557    5.7234   -1.5383 C   0  0  0  0  0  0  0  0  0  0  0  0
  -10.3913   -3.1485   -3.6416 H   0  0  0  0  0  0  0  0  0  0  0  0
   -9.8994   -1.5025   -4.1175 H   0  0  0  0  0  0  0  0  0  0  0  0
   -9.2168   -2.2456   -2.6425 H   0  0  0  0  0  0  0  0  0  0  0  0
   -3.9521    7.6879   -0.6803 H   0  0  0  0  0  0  0  0  0  0  0  0
   -5.5322    6.8566   -0.6742 H   0  0  0  0  0  0  0  0  0  0  0  0
   -4.0707    5.9956   -1.2383 H   0  0  0  0  0  0  0  0  0  0  0  0
   -1.4138    5.8141   -2.4022 H   0  0  0  0  0  0  0  0  0  0  0  0
   -0.2032    4.7804   -1.5935 H   0  0  0  0  0  0  0  0  0  0  0  0
   -0.0515    6.5621   -1.5310 H   0  0  0  0  0  0  0  0  0  0  0  0
   -3.0543   -4.7313    5.4231 H   0  0  0  0  0  0  0  0  0  0  0  0
   -3.3072   -3.3509    4.3189 H   0  0  0  0  0  0  0  0  0  0  0  0
   -1.6487   -3.8651    4.7486 H   0  0  0  0  0  0  0  0  0  0  0  0
   -0.6474   -6.1125   -1.1214 H   0  0  0  0  0  0  0  0  0  0  0  0
    0.9280   -5.2894   -1.2912 H   0  0  0  0  0  0  0  0  0  0  0  0
   -0.5881   -4.3811   -1.5609 H   0  0  0  0  0  0  0  0  0  0  0  0
    8.7130    3.8299    4.2625 H   0  0  0  0  0  0  0  0  0  0  0  0
    7.0500    3.6330    3.6397 H   0  0  0  0  0  0  0  0  0  0  0  0
    8.2964    4.4266    2.6351 H   0  0  0  0  0  0  0  0  0  0  0  0
   -7.5176    0.4554   -3.6134 H   0  0  0  0  0  0  0  0  0  0  0  0
   -5.5214   -3.3252   -3.6774 H   0  0  0  0  0  0  0  0  0  0  0  0
   -6.8291    3.4260   -0.1849 H   0  0  0  0  0  0  0  0  0  0  0  0
   -3.1115   -4.6933   -0.1506 H   0  0  0  0  0  0  0  0  0  0  0  0
   -2.8184    3.9898    1.0664 H   0  0  0  0  0  0  0  0  0  0  0  0
   -1.4836   -2.0844    2.8092 H   0  0  0  0  0  0  0  0  0  0  0  0
   -1.3449    3.8929    2.3282 H   0  0  0  0  0  0  0  0  0  0  0  0
   -0.2854   -2.3664    0.1679 H   0  0  0  0  0  0  0  0  0  0  0  0
    3.3708   -3.0625    2.2497 H   0  0  0  0  0  0  0  0  0  0  0  0
    1.9536    5.8183    0.4142 H   0  0  0  0  0  0  0  0  0  0  0  0
    6.0991    3.9025    0.5461 H   0  0  0  0  0  0  0  0  0  0  0  0
    6.6934   -0.1058    1.9207 H   0  0  0  0  0  0  0  0  0  0  0  0
  1  2  2  0  0  0  0
  1 96  1  0  0  0  0
  2  3  1  0  0  0  0
  3  4  2  0  0  0  0
  3  7  1  0  0  0  0
  4  5  1  0  0  0  0
  5  6  2  0  0  0  0
  5 99  1  0  0  0  0
  6  1  1  0  0  0  0
  6 24  1  0  0  0  0
  7  8  1  0  0  0  0
  7 11  2  0  0  0  0
  8  9  1  0  0  0  0
  9 10  2  0  0  0  0
 10  4  1  0  0  0  0
 11 12  1  0  0  0  0
 11 18  1  0  0  0  0
 12 13  2  0  0  0  0
 13 14  1  0  0  0  0
 14  8  1  0  0  0  0
 14 15  2  0  0  0  0
 15 16  1  0  0  0  0
 15101  1  0  0  0  0
 16 17  2  0  0  0  0
 16 26  1  0  0  0  0
 17  9  1  0  0  0  0
 17100  1  0  0  0  0
 18 19  2  0  0  0  0
 19 20  1  0  0  0  0
 19 97  1  0  0  0  0
 20 21  2  0  0  0  0
 20 25  1  0  0  0  0
 21 12  1  0  0  0  0
 21 98  1  0  0  0  0
 22  2  1  0  0  0  0
 23 18  1  0  0  0  0
 24 69  2  0  0  0  0
 24 70  1  0  0  0  0
 25 57  1  0  0  0  0
 25 59  2  0  0  0  0
 26 54  2  0  0  0  0
 26 55  1  0  0  0  0
 27 28  2  0  0  0  0
 27 95  1  0  0  0  0
 28 29  1  0  0  0  0
 28 48  1  0  0  0  0
 29 30  2  0  0  0  0
 29 33  1  0  0  0  0
 30 31  1  0  0  0  0
 31 32  2  0  0  0  0
 31 93  1  0  0  0  0
 32 27  1  0  0  0  0
 32 50  1  0  0  0  0
 33 37  2  0  0  0  0
 34 33  1  0  0  0  0
 34 35  1  0  0  0  0
 35 36  2  0  0  0  0
 36 30  1  0  0  0  0
 37 38  1  0  0  0  0
 37 44  1  0  0  0  0
 38 39  2  0  0  0  0
 39 40  1  0  0  0  0
 40 34  1  0  0  0  0
 40 41  2  0  0  0  0
 41 42  1  0  0  0  0
 41 90  1  0  0  0  0
 42 43  2  0  0  0  0
 42 52  1  0  0  0  0
 43 35  1  0  0  0  0
 43 91  1  0  0  0  0
 44 45  2  0  0  0  0
 44 49  1  0  0  0  0
 45 46  1  0  0  0  0
 45 94  1  0  0  0  0
 46 47  2  0  0  0  0
 46 51  1  0  0  0  0
 47 38  1  0  0  0  0
 47 92  1  0  0  0  0
 50 60  2  0  0  0  0
 50 61  1  0  0  0  0
 51 66  2  0  0  0  0
 51 67  1  0  0  0  0
 52 63  2  0  0  0  0
 52 64  1  0  0  0  0
 53 49  1  0  0  0  0
 53 22  1  0  0  0  0
 53 48  1  0  0  0  0
 53 23  1  0  0  0  0
 55 56  1  0  0  0  0
 56 87  1  0  0  0  0
 56 88  1  0  0  0  0
 56 89  1  0  0  0  0
 57 58  1  0  0  0  0
 58 84  1  0  0  0  0
 58 85  1  0  0  0  0
 58 86  1  0  0  0  0
 61 62  1  0  0  0  0
 62 81  1  0  0  0  0
 62 82  1  0  0  0  0
 62 83  1  0  0  0  0
 64 65  1  0  0  0  0
 65 72  1  0  0  0  0
 65 73  1  0  0  0  0
 65 74  1  0  0  0  0
 67 68  1  0  0  0  0
 68 75  1  0  0  0  0
 68 76  1  0  0  0  0
 68 77  1  0  0  0  0
 70 71  1  0  0  0  0
 71 78  1  0  0  0  0
 71 79  1  0  0  0  0
 71 80  1  0  0  0  0
M  CHG  1   8   1
M  CHG  1  53  -1
M  END
