 energy: -51.134108498627 gnorm: 0.000944132438 xtb: 6.7.1 (edcfbbe)
          03202513133D

274296  0     0  0            999 V2000
   -0.9616   -0.9117    1.9583 C   0  0  0  0  0  0  0  0  0  0  0  0
   -1.4902    0.0372    1.0821 C   0  0  0  0  0  0  0  0  0  0  0  0
   -2.8576   -0.0971    0.6449 C   0  0  0  0  0  0  0  0  0  0  0  0
   -3.4915   -1.3529    0.9166 C   0  0  0  0  0  0  0  0  0  0  0  0
   -2.8753   -2.2741    1.7892 C   0  0  0  0  0  0  0  0  0  0  0  0
   -1.6533   -2.0385    2.3737 C   0  0  0  0  0  0  0  0  0  0  0  0
   -3.7242    0.9643    0.1867 C   0  0  0  0  0  5  0  0  0  0  0  0
   -5.0774    0.6403   -0.0033 C   0  0  0  0  0  5  0  0  0  0  0  0
   -5.4850   -0.7203   -0.0509 C   0  0  0  0  0  5  0  0  0  0  0  0
   -4.7063   -1.7085    0.4258 N   0  0  0  0  0  4  0  0  0  0  0  0
   -3.4487    2.3742    0.1065 C   0  0  0  0  0  0  0  0  0  0  0  0
   -4.5130    3.2997    0.3200 C   0  0  0  0  0  0  0  0  0  0  0  0
   -5.8118    2.9584    0.1562 N   0  0  0  0  0  0  0  0  0  0  0  0
   -6.0576    1.6671   -0.1566 C   0  0  0  0  0  0  0  0  0  0  0  0
   -7.3427    1.2945   -0.5834 C   0  0  0  0  0  0  0  0  0  0  0  0
   -7.6940   -0.0245   -0.8306 C   0  0  0  0  0  5  0  0  0  0  0  0
   -6.7742   -1.0158   -0.5225 C   0  0  0  0  0  5  0  0  0  0  0  0
   -2.1922    2.9255   -0.2957 C   0  0  0  0  0  0  0  0  0  0  0  0
   -1.9034    4.2525    0.0127 C   0  0  0  0  0  0  0  0  0  0  0  0
   -2.8784    5.1104    0.5172 C   0  0  0  0  0  0  0  0  0  0  0  0
   -4.1764    4.6428    0.5934 C   0  0  0  0  0  0  0  0  0  0  0  0
   -0.5752    1.0166    0.7465 O   0  0  0  0  0  0  0  0  0  0  0  0
   -1.3638    2.1884   -1.1142 O   0  0  0  0  0  0  0  0  0  0  0  0
   -0.1489    1.6916   -0.4993 B   0  0  0  0  0  0  0  0  0  0  0  0
    0.1788   -1.4803   -1.4795 C   0  0  0  0  0  5  0  0  0  0  0  0
    0.9165   -0.4044   -0.9915 C   0  0  0  0  0  5  0  0  0  0  0  0
    1.9270   -0.5912   -0.0007 C   0  0  0  0  0  0  0  0  0  0  0  0
    2.0378   -1.9099    0.5288 C   0  0  0  0  0  0  0  0  0  0  0  0
    1.2638   -2.9595   -0.0105 C   0  0  0  0  0  5  0  0  0  0  0  0
    0.3523   -2.7744   -1.0207 C   0  0  0  0  0  5  0  0  0  0  0  0
    2.8987    0.4018    0.3910 C   0  0  0  0  0  0  0  0  0  0  0  0
    3.9075   -0.0727    1.2551 C   0  0  0  0  0  0  0  0  0  0  0  0
    3.7923   -1.3418    1.8904 C   0  0  0  0  0  0  0  0  0  0  0  0
    2.8644   -2.2459    1.5414 N   0  0  0  0  0  0  0  0  0  0  0  0
    3.1052    1.7525   -0.1129 C   0  0  0  0  0  0  0  0  0  0  0  0
    4.4476    2.2564   -0.0686 C   0  0  0  0  0  0  0  0  0  0  0  0
    5.4045    1.7674    0.7498 N   0  0  0  0  0  0  0  0  0  0  0  0
    5.0885    0.6882    1.4854 C   0  0  0  0  0  0  0  0  0  0  0  0
    6.0135    0.2445    2.4437 C   0  0  0  0  0  0  0  0  0  0  0  0
    5.8403   -0.9287    3.1573 C   0  0  0  0  0  0  0  0  0  0  0  0
    4.7438   -1.7140    2.8521 C   0  0  0  0  0  0  0  0  0  0  0  0
    2.1149    2.7171   -0.5420 C   0  0  0  0  0  0  0  0  0  0  0  0
    2.5206    3.8426   -1.2636 C   0  0  0  0  0  0  0  0  0  0  0  0
    3.8539    4.1749   -1.4581 C   0  0  0  0  0  0  0  0  0  0  0  0
    4.7896    3.4088   -0.8058 C   0  0  0  0  0  0  0  0  0  0  0  0
    0.7861    2.7572   -0.1510 O   0  0  0  0  0  0  0  0  0  0  0  0
    0.5598    0.8307   -1.4661 O   0  0  0  0  0  0  0  0  0  0  0  0
   -1.0573   -2.9533    3.4575 C   0  0  0  0  0  0  0  0  0  0  0  0
    0.0783   -3.8007    2.8724 C   0  0  0  0  0  0  0  0  0  0  0  0
   -2.1294   -3.8925    4.0389 C   0  0  0  0  0  0  0  0  0  0  0  0
   -0.4933   -2.0926    4.6038 C   0  0  0  0  0  0  0  0  0  0  0  0
   -2.5563    6.5573    0.9136 C   0  0  0  0  0  0  0  0  0  0  0  0
   -2.9556    6.7748    2.3844 C   0  0  0  0  0  0  0  0  0  0  0  0
   -1.0526    6.8630    0.7693 C   0  0  0  0  0  0  0  0  0  0  0  0
   -3.3412    7.5241    0.0102 C   0  0  0  0  0  0  0  0  0  0  0  0
   -9.0623   -0.3436   -1.4559 C   0  0  0  0  0  0  0  0  0  0  0  0
   -9.2213   -1.8496   -1.7407 C   0  0  0  0  0  0  0  0  0  0  0  0
   -9.1880    0.4147   -2.7909 C   0  0  0  0  0  0  0  0  0  0  0  0
  -10.1949    0.0929   -0.5103 C   0  0  0  0  0  0  0  0  0  0  0  0
   -0.5038   -3.9137   -1.5920 C   0  0  0  0  0  0  0  0  0  0  0  0
   -1.9437   -3.7648   -1.0751 C   0  0  0  0  0  0  0  0  0  0  0  0
    0.0369   -5.2938   -1.1722 C   0  0  0  0  0  0  0  0  0  0  0  0
   -0.4994   -3.8476   -3.1311 C   0  0  0  0  0  0  0  0  0  0  0  0
    4.2804    5.4278   -2.2339 C   0  0  0  0  0  0  0  0  0  0  0  0
    5.4104    5.0677   -3.2165 C   0  0  0  0  0  0  0  0  0  0  0  0
    4.7766    6.4897   -1.2384 C   0  0  0  0  0  0  0  0  0  0  0  0
    3.1088    6.0147   -3.0450 C   0  0  0  0  0  0  0  0  0  0  0  0
    6.8672   -1.4188    4.1880 C   0  0  0  0  0  0  0  0  0  0  0  0
    7.8216   -0.2854    4.6115 C   0  0  0  0  0  0  0  0  0  0  0  0
    6.1348   -1.9293    5.4434 C   0  0  0  0  0  0  0  0  0  0  0  0
    7.6920   -2.5610    3.5732 C   0  0  0  0  0  0  0  0  0  0  0  0
  -11.1677   -0.0507   -0.9797 H   0  0  0  0  0  0  0  0  0  0  0  0
  -10.1064    1.1448   -0.2427 H   0  0  0  0  0  0  0  0  0  0  0  0
  -10.1830   -0.4952    0.4058 H   0  0  0  0  0  0  0  0  0  0  0  0
  -10.1816   -2.0538   -2.2133 H   0  0  0  0  0  0  0  0  0  0  0  0
   -9.1790   -2.4313   -0.8206 H   0  0  0  0  0  0  0  0  0  0  0  0
   -8.4400   -2.2055   -2.4116 H   0  0  0  0  0  0  0  0  0  0  0  0
  -10.1328    0.1854   -3.2829 H   0  0  0  0  0  0  0  0  0  0  0  0
   -8.3794    0.1388   -3.4670 H   0  0  0  0  0  0  0  0  0  0  0  0
   -9.1445    1.4923   -2.6403 H   0  0  0  0  0  0  0  0  0  0  0  0
   -0.1754   -2.7078    5.4448 H   0  0  0  0  0  0  0  0  0  0  0  0
   -1.2437   -1.3925    4.9657 H   0  0  0  0  0  0  0  0  0  0  0  0
    0.3717   -1.5103    4.2896 H   0  0  0  0  0  0  0  0  0  0  0  0
    0.4848   -4.4790    3.6222 H   0  0  0  0  0  0  0  0  0  0  0  0
    0.8919   -3.1658    2.5272 H   0  0  0  0  0  0  0  0  0  0  0  0
   -0.2784   -4.3964    2.0339 H   0  0  0  0  0  0  0  0  0  0  0  0
   -1.7346   -4.4596    4.8815 H   0  0  0  0  0  0  0  0  0  0  0  0
   -2.4758   -4.6082    3.2944 H   0  0  0  0  0  0  0  0  0  0  0  0
   -2.9869   -3.3240    4.3939 H   0  0  0  0  0  0  0  0  0  0  0  0
   -2.5924   -4.5347   -1.4910 H   0  0  0  0  0  0  0  0  0  0  0  0
   -2.3589   -2.7932   -1.3406 H   0  0  0  0  0  0  0  0  0  0  0  0
   -1.9704   -3.8538    0.0095 H   0  0  0  0  0  0  0  0  0  0  0  0
   -1.0566   -4.6813   -3.5574 H   0  0  0  0  0  0  0  0  0  0  0  0
    0.5193   -3.8910   -3.5152 H   0  0  0  0  0  0  0  0  0  0  0  0
   -0.9573   -2.9289   -3.4938 H   0  0  0  0  0  0  0  0  0  0  0  0
   -0.5405   -6.0924   -1.6372 H   0  0  0  0  0  0  0  0  0  0  0  0
   -0.0257   -5.4341   -0.0942 H   0  0  0  0  0  0  0  0  0  0  0  0
    1.0764   -5.4134   -1.4760 H   0  0  0  0  0  0  0  0  0  0  0  0
   -2.7235    7.7896    2.7063 H   0  0  0  0  0  0  0  0  0  0  0  0
   -2.4202    6.0828    3.0341 H   0  0  0  0  0  0  0  0  0  0  0  0
   -4.0225    6.6137    2.5324 H   0  0  0  0  0  0  0  0  0  0  0  0
    5.0810    7.3988   -1.7563 H   0  0  0  0  0  0  0  0  0  0  0  0
    5.6308    6.1249   -0.6692 H   0  0  0  0  0  0  0  0  0  0  0  0
    3.9905    6.7506   -0.5303 H   0  0  0  0  0  0  0  0  0  0  0  0
   -0.8315    7.8795    1.0937 H   0  0  0  0  0  0  0  0  0  0  0  0
   -0.7305    6.7727   -0.2676 H   0  0  0  0  0  0  0  0  0  0  0  0
   -0.4549    6.1841    1.3766 H   0  0  0  0  0  0  0  0  0  0  0  0
   -3.1118    8.5605    0.2564 H   0  0  0  0  0  0  0  0  0  0  0  0
   -4.4158    7.3855    0.1203 H   0  0  0  0  0  0  0  0  0  0  0  0
   -3.0887    7.3620   -1.0373 H   0  0  0  0  0  0  0  0  0  0  0  0
    5.7024    5.9344   -3.8088 H   0  0  0  0  0  0  0  0  0  0  0  0
    5.0881    4.2845   -3.9019 H   0  0  0  0  0  0  0  0  0  0  0  0
    6.2965    4.7122   -2.6930 H   0  0  0  0  0  0  0  0  0  0  0  0
    3.4421    6.8550   -3.6534 H   0  0  0  0  0  0  0  0  0  0  0  0
    2.3180    6.3803   -2.3910 H   0  0  0  0  0  0  0  0  0  0  0  0
    2.6847    5.2661   -3.7137 H   0  0  0  0  0  0  0  0  0  0  0  0
    8.2169   -2.2206    2.6812 H   0  0  0  0  0  0  0  0  0  0  0  0
    7.0516   -3.3940    3.2858 H   0  0  0  0  0  0  0  0  0  0  0  0
    8.4320   -2.9328    4.2814 H   0  0  0  0  0  0  0  0  0  0  0  0
    5.4434   -1.1723    5.8071 H   0  0  0  0  0  0  0  0  0  0  0  0
    6.8381   -2.1603    6.2430 H   0  0  0  0  0  0  0  0  0  0  0  0
    5.5623   -2.8324    5.2383 H   0  0  0  0  0  0  0  0  0  0  0  0
    7.2615    0.5794    4.9630 H   0  0  0  0  0  0  0  0  0  0  0  0
    8.4562    0.0290    3.7840 H   0  0  0  0  0  0  0  0  0  0  0  0
    8.4761   -0.6101    5.4199 H   0  0  0  0  0  0  0  0  0  0  0  0
    6.8870    0.8490    2.5986 H   0  0  0  0  0  0  0  0  0  0  0  0
    4.6200   -2.6697    3.3262 H   0  0  0  0  0  0  0  0  0  0  0  0
    1.4341   -3.9434    0.3836 H   0  0  0  0  0  0  0  0  0  0  0  0
    5.8215    3.7084   -0.8071 H   0  0  0  0  0  0  0  0  0  0  0  0
   -4.9731    5.3132    0.8577 H   0  0  0  0  0  0  0  0  0  0  0  0
   -3.4290   -3.1613    2.0325 H   0  0  0  0  0  0  0  0  0  0  0  0
   -8.0601    2.0778   -0.7432 H   0  0  0  0  0  0  0  0  0  0  0  0
   -7.0356   -2.0519   -0.6259 H   0  0  0  0  0  0  0  0  0  0  0  0
   -0.5778   -1.2635   -2.2099 H   0  0  0  0  0  0  0  0  0  0  0  0
    0.0438   -0.7532    2.3004 H   0  0  0  0  0  0  0  0  0  0  0  0
   -0.9163    4.6059   -0.2166 H   0  0  0  0  0  0  0  0  0  0  0  0
    1.7447    4.4989   -1.6097 H   0  0  0  0  0  0  0  0  0  0  0  0
   -1.3564   -2.9265    9.0109 C   0  0  0  0  0  0  0  0  0  0  0  0
   -1.4216   -1.8244    8.1528 C   0  0  0  0  0  0  0  0  0  0  0  0
   -2.5230   -1.7419    7.2124 C   0  0  0  0  0  0  0  0  0  0  0  0
   -3.3236   -2.9170    7.0565 C   0  0  0  0  0  0  0  0  0  0  0  0
   -3.1377   -4.0149    7.9161 C   0  0  0  0  0  0  0  0  0  0  0  0
   -2.2270   -4.0071    8.9420 C   0  0  0  0  0  0  0  0  0  0  0  0
   -3.0455   -0.5498    6.5829 C   0  0  0  0  0  5  0  0  0  0  0  0
   -4.2824   -0.6401    5.9259 C   0  0  0  0  0  5  0  0  0  0  0  0
   -4.8463   -1.9096    5.6442 C   0  0  0  0  0  5  0  0  0  0  0  0
   -4.3547   -3.0378    6.1821 N   0  0  0  0  0  4  0  0  0  0  0  0
   -2.5408    0.7866    6.6692 C   0  0  0  0  0  0  0  0  0  0  0  0
   -3.4201    1.8939    6.5134 C   0  0  0  0  0  0  0  0  0  0  0  0
   -4.6319    1.7771    5.9326 N   0  0  0  0  0  0  0  0  0  0  0  0
   -4.9854    0.5381    5.5335 C   0  0  0  0  0  0  0  0  0  0  0  0
   -6.1362    0.3951    4.7471 C   0  0  0  0  0  0  0  0  0  0  0  0
   -6.6184   -0.8415    4.3522 C   0  0  0  0  0  5  0  0  0  0  0  0
   -5.9901   -1.9763    4.8364 C   0  0  0  0  0  5  0  0  0  0  0  0
   -1.1514    1.0685    6.7904 C   0  0  0  0  0  0  0  0  0  0  0  0
   -0.7656    2.3332    7.2409 C   0  0  0  0  0  0  0  0  0  0  0  0
   -1.6638    3.3950    7.3057 C   0  0  0  0  0  0  0  0  0  0  0  0
   -2.9583    3.1726    6.8848 C   0  0  0  0  0  0  0  0  0  0  0  0
   -0.3827   -0.9240    8.3716 O   0  0  0  0  0  0  0  0  0  0  0  0
   -0.2663    0.1169    6.3182 O   0  0  0  0  0  0  0  0  0  0  0  0
    0.5802   -0.4206    7.3647 B   0  0  0  0  0  0  0  0  0  0  0  0
    2.1477   -3.3689    8.0289 C   0  0  0  0  0  5  0  0  0  0  0  0
    2.4489   -2.0427    7.7160 C   0  0  0  0  0  5  0  0  0  0  0  0
    3.6708   -1.4593    8.2226 C   0  0  0  0  0  0  0  0  0  0  0  0
    4.4646   -2.2731    9.0865 C   0  0  0  0  0  0  0  0  0  0  0  0
    4.0574   -3.5844    9.3920 C   0  0  0  0  0  5  0  0  0  0  0  0
    2.9427   -4.1623    8.8423 C   0  0  0  0  0  5  0  0  0  0  0  0
    4.2736   -0.2218    7.7874 C   0  0  0  0  0  0  0  0  0  0  0  0
    5.6276   -0.0109    8.1022 C   0  0  0  0  0  0  0  0  0  0  0  0
    6.2736   -0.8376    9.0550 C   0  0  0  0  0  0  0  0  0  0  0  0
    5.6769   -1.9204    9.5800 N   0  0  0  0  0  0  0  0  0  0  0  0
    3.7162    0.7667    6.9138 C   0  0  0  0  0  0  0  0  0  0  0  0
    4.5861    1.5743    6.1251 C   0  0  0  0  0  0  0  0  0  0  0  0
    5.9009    1.7099    6.3979 N   0  0  0  0  0  0  0  0  0  0  0  0
    6.3797    1.0061    7.4433 C   0  0  0  0  0  0  0  0  0  0  0  0
    7.7121    1.2152    7.8311 C   0  0  0  0  0  0  0  0  0  0  0  0
    8.3270    0.4627    8.8177 C   0  0  0  0  0  0  0  0  0  0  0  0
    7.6008   -0.5561    9.4092 C   0  0  0  0  0  0  0  0  0  0  0  0
    2.3168    1.0188    6.8233 C   0  0  0  0  0  0  0  0  0  0  0  0
    1.8499    1.7123    5.7077 C   0  0  0  0  0  0  0  0  0  0  0  0
    2.6903    2.3343    4.7973 C   0  0  0  0  0  0  0  0  0  0  0  0
    4.0447    2.3070    5.0488 C   0  0  0  0  0  0  0  0  0  0  0  0
    1.4741    0.6274    7.8506 O   0  0  0  0  0  0  0  0  0  0  0  0
    1.5121   -1.4614    6.8678 O   0  0  0  0  0  0  0  0  0  0  0  0
   -2.3032   -5.0976   10.0231 C   0  0  0  0  0  0  0  0  0  0  0  0
   -1.1841   -4.9403   11.0665 C   0  0  0  0  0  0  0  0  0  0  0  0
   -2.2046   -6.4931    9.3795 C   0  0  0  0  0  0  0  0  0  0  0  0
   -3.6548   -4.9736   10.7518 C   0  0  0  0  0  0  0  0  0  0  0  0
   -1.2327    4.7985    7.7524 C   0  0  0  0  0  0  0  0  0  0  0  0
   -2.0596    5.2081    8.9835 C   0  0  0  0  0  0  0  0  0  0  0  0
    0.2609    4.8396    8.1299 C   0  0  0  0  0  0  0  0  0  0  0  0
   -1.4746    5.8013    6.6091 C   0  0  0  0  0  0  0  0  0  0  0  0
   -7.8577   -0.9602    3.4580 C   0  0  0  0  0  0  0  0  0  0  0  0
   -7.6747   -2.1175    2.4565 C   0  0  0  0  0  0  0  0  0  0  0  0
   -8.0756    0.3399    2.6602 C   0  0  0  0  0  0  0  0  0  0  0  0
   -9.0905   -1.2292    4.3348 C   0  0  0  0  0  0  0  0  0  0  0  0
    2.6731   -5.6561    9.0659 C   0  0  0  0  0  0  0  0  0  0  0  0
    1.3791   -6.0995    8.3618 C   0  0  0  0  0  0  0  0  0  0  0  0
    2.5584   -5.9385   10.5753 C   0  0  0  0  0  0  0  0  0  0  0  0
    3.8399   -6.4738    8.4817 C   0  0  0  0  0  0  0  0  0  0  0  0
    2.0597    3.0356    3.5885 C   0  0  0  0  0  0  0  0  0  0  0  0
    3.1307    3.6302    2.6596 C   0  0  0  0  0  0  0  0  0  0  0  0
    1.1383    4.1705    4.0669 C   0  0  0  0  0  0  0  0  0  0  0  0
    1.2259    2.0048    2.8063 C   0  0  0  0  0  0  0  0  0  0  0  0
    9.7843    0.6966    9.2415 C   0  0  0  0  0  0  0  0  0  0  0  0
   10.4129    1.8865    8.4915 C   0  0  0  0  0  0  0  0  0  0  0  0
    9.8331    0.9943   10.7514 C   0  0  0  0  0  0  0  0  0  0  0  0
   10.6103   -0.5653    8.9333 C   0  0  0  0  0  0  0  0  0  0  0  0
   -9.9900   -1.3189    3.7265 H   0  0  0  0  0  0  0  0  0  0  0  0
   -9.2417   -0.4189    5.0473 H   0  0  0  0  0  0  0  0  0  0  0  0
   -8.9708   -2.1528    4.9000 H   0  0  0  0  0  0  0  0  0  0  0  0
   -8.4820   -2.1316    1.7253 H   0  0  0  0  0  0  0  0  0  0  0  0
   -7.6721   -3.0845    2.9565 H   0  0  0  0  0  0  0  0  0  0  0  0
   -6.7318   -2.0138    1.9216 H   0  0  0  0  0  0  0  0  0  0  0  0
   -8.8864    0.2246    1.9453 H   0  0  0  0  0  0  0  0  0  0  0  0
   -7.1761    0.6093    2.1081 H   0  0  0  0  0  0  0  0  0  0  0  0
   -8.3404    1.1705    3.3124 H   0  0  0  0  0  0  0  0  0  0  0  0
   -3.7428   -5.7191   11.5415 H   0  0  0  0  0  0  0  0  0  0  0  0
   -4.4878   -5.1143   10.0643 H   0  0  0  0  0  0  0  0  0  0  0  0
   -3.7588   -3.9877   11.2038 H   0  0  0  0  0  0  0  0  0  0  0  0
   -1.2281   -5.7378   11.8078 H   0  0  0  0  0  0  0  0  0  0  0  0
   -1.2726   -3.9920   11.5957 H   0  0  0  0  0  0  0  0  0  0  0  0
   -0.2057   -4.9768   10.5966 H   0  0  0  0  0  0  0  0  0  0  0  0
   -2.1945   -7.2723   10.1411 H   0  0  0  0  0  0  0  0  0  0  0  0
   -1.2982   -6.5916    8.7866 H   0  0  0  0  0  0  0  0  0  0  0  0
   -3.0508   -6.6868    8.7220 H   0  0  0  0  0  0  0  0  0  0  0  0
    1.1539   -7.1427    8.5815 H   0  0  0  0  0  0  0  0  0  0  0  0
    1.4696   -6.0012    7.2802 H   0  0  0  0  0  0  0  0  0  0  0  0
    0.5354   -5.4945    8.6841 H   0  0  0  0  0  0  0  0  0  0  0  0
    3.6680   -7.5424    8.6073 H   0  0  0  0  0  0  0  0  0  0  0  0
    4.7806   -6.2274    8.9722 H   0  0  0  0  0  0  0  0  0  0  0  0
    3.9559   -6.2721    7.4172 H   0  0  0  0  0  0  0  0  0  0  0  0
    2.2595   -6.9700   10.7592 H   0  0  0  0  0  0  0  0  0  0  0  0
    1.8258   -5.2823   11.0407 H   0  0  0  0  0  0  0  0  0  0  0  0
    3.5097   -5.7746   11.0797 H   0  0  0  0  0  0  0  0  0  0  0  0
   -1.7687    6.1964    9.3383 H   0  0  0  0  0  0  0  0  0  0  0  0
   -1.9125    4.4992    9.7978 H   0  0  0  0  0  0  0  0  0  0  0  0
   -3.1236    5.2353    8.7524 H   0  0  0  0  0  0  0  0  0  0  0  0
    0.6932    4.6915    3.2199 H   0  0  0  0  0  0  0  0  0  0  0  0
    1.6941    4.8968    4.6590 H   0  0  0  0  0  0  0  0  0  0  0  0
    0.3271    3.7832    4.6814 H   0  0  0  0  0  0  0  0  0  0  0  0
    0.5499    5.8383    8.4559 H   0  0  0  0  0  0  0  0  0  0  0  0
    0.8896    4.5767    7.2798 H   0  0  0  0  0  0  0  0  0  0  0  0
    0.4782    4.1505    8.9454 H   0  0  0  0  0  0  0  0  0  0  0  0
   -1.1525    6.8022    6.8946 H   0  0  0  0  0  0  0  0  0  0  0  0
   -2.5294    5.8552    6.3441 H   0  0  0  0  0  0  0  0  0  0  0  0
   -0.9216    5.5125    5.7166 H   0  0  0  0  0  0  0  0  0  0  0  0
    2.6732    4.0771    1.7776 H   0  0  0  0  0  0  0  0  0  0  0  0
    3.8216    2.8597    2.3232 H   0  0  0  0  0  0  0  0  0  0  0  0
    3.7032    4.4068    3.1651 H   0  0  0  0  0  0  0  0  0  0  0  0
    0.8046    2.4393    1.9014 H   0  0  0  0  0  0  0  0  0  0  0  0
    0.3963    1.6250    3.4007 H   0  0  0  0  0  0  0  0  0  0  0  0
    1.8402    1.1545    2.5170 H   0  0  0  0  0  0  0  0  0  0  0  0
   10.5681   -0.8026    7.8707 H   0  0  0  0  0  0  0  0  0  0  0  0
   10.2359   -1.4276    9.4832 H   0  0  0  0  0  0  0  0  0  0  0  0
   11.6554   -0.4237    9.2070 H   0  0  0  0  0  0  0  0  0  0  0  0
    9.2321    1.8713   10.9897 H   0  0  0  0  0  0  0  0  0  0  0  0
   10.8545    1.1861   11.0787 H   0  0  0  0  0  0  0  0  0  0  0  0
    9.4487    0.1579   11.3334 H   0  0  0  0  0  0  0  0  0  0  0  0
    9.8584    2.8052    8.6800 H   0  0  0  0  0  0  0  0  0  0  0  0
   10.4329    1.7073    7.4170 H   0  0  0  0  0  0  0  0  0  0  0  0
   11.4403    2.0487    8.8166 H   0  0  0  0  0  0  0  0  0  0  0  0
    8.2543    1.9879    7.3201 H   0  0  0  0  0  0  0  0  0  0  0  0
    8.0626   -1.1841   10.1482 H   0  0  0  0  0  0  0  0  0  0  0  0
    4.7041   -4.1664   10.0226 H   0  0  0  0  0  0  0  0  0  0  0  0
    4.7298    2.8415    4.4181 H   0  0  0  0  0  0  0  0  0  0  0  0
   -3.6537    3.9893    6.8298 H   0  0  0  0  0  0  0  0  0  0  0  0
   -3.8191   -4.8393    7.8125 H   0  0  0  0  0  0  0  0  0  0  0  0
   -6.6377    1.2964    4.4503 H   0  0  0  0  0  0  0  0  0  0  0  0
   -6.3897   -2.9492    4.6205 H   0  0  0  0  0  0  0  0  0  0  0  0
    1.2542   -3.7711    7.5909 H   0  0  0  0  0  0  0  0  0  0  0  0
   -0.5790   -2.9100    9.7513 H   0  0  0  0  0  0  0  0  0  0  0  0
    0.2637    2.4792    7.5023 H   0  0  0  0  0  0  0  0  0  0  0  0
    0.7929    1.7582    5.5442 H   0  0  0  0  0  0  0  0  0  0  0  0
  1135  1  0  0  0  0
  2  1  1  0  0  0  0
  2 22  1  0  0  0  0
  3  7  1  0  0  0  0
  3  2  2  0  0  0  0
  4  3  1  0  0  0  0
  5  4  2  0  0  0  0
  5  6  1  0  0  0  0
  6 48  1  0  0  0  0
  6  1  3  0  0  0  0
  7 11  1  0  0  0  0
  7  8  2  0  0  0  0
  9 17  1  0  0  0  0
  9  8  1  0  0  0  0
 10  4  1  0  0  0  0
 10  9  2  0  0  0  0
 11 18  2  0  0  0  0
 11 12  1  0  0  0  0
 12 21  2  0  0  0  0
 13 12  1  0  0  0  0
 14 13  1  0  0  0  0
 14  8  1  0  0  0  0
 15 16  1  0  0  0  0
 15 14  2  0  0  0  0
 16 17  2  0  0  0  0
 18 19  1  0  0  0  0
 19 20  2  0  0  0  0
 19136  1  0  0  0  0
 21 20  1  0  0  0  0
 23 18  1  0  0  0  0
 24 23  1  0  0  0  0
 24 22  1  0  0  0  0
 24 46  1  0  0  0  0
 25 26  2  0  0  0  0
 25134  1  0  0  0  0
 27 26  1  0  0  0  0
 27 31  2  0  0  0  0
 28 34  2  0  0  0  0
 28 27  1  0  0  0  0
 29 28  1  0  0  0  0
 29128  1  0  0  0  0
 29 30  2  0  0  0  0
 30 25  1  0  0  0  0
 30 60  1  0  0  0  0
 31 35  1  0  0  0  0
 32 31  1  0  0  0  0
 32 38  1  0  0  0  0
 33 32  2  0  0  0  0
 33 41  1  0  0  0  0
 34 33  1  0  0  0  0
 35 36  2  0  0  0  0
 35 42  1  0  0  0  0
 36 37  1  0  0  0  0
 38 37  1  0  0  0  0
 38 39  2  0  0  0  0
 39126  1  0  0  0  0
 40 39  1  0  0  0  0
 41127  1  0  0  0  0
 41 40  2  0  0  0  0
 42 46  1  0  0  0  0
 43 42  2  0  0  0  0
 43137  1  0  0  0  0
 44 45  2  0  0  0  0
 44 43  1  0  0  0  0
 45129  1  0  0  0  0
 45 36  1  0  0  0  0
 47 26  1  0  0  0  0
 47 24  1  0  0  0  0
 48 49  1  0  0  0  0
 49 84  1  0  0  0  0
 49 85  1  0  0  0  0
 49 86  1  0  0  0  0
 50 87  1  0  0  0  0
 50 48  1  0  0  0  0
 50 88  1  0  0  0  0
 51 83  1  0  0  0  0
 51 48  1  0  0  0  0
 52 20  1  0  0  0  0
 52 53  1  0  0  0  0
 52 54  1  0  0  0  0
 53100  1  0  0  0  0
 54107  1  0  0  0  0
 55 52  1  0  0  0  0
 56 16  1  0  0  0  0
 56 59  1  0  0  0  0
 57 56  1  0  0  0  0
 58 78  1  0  0  0  0
 58 56  1  0  0  0  0
 58 80  1  0  0  0  0
 59 72  1  0  0  0  0
 59 74  1  0  0  0  0
 59 73  1  0  0  0  0
 60 63  1  0  0  0  0
 60 62  1  0  0  0  0
 61 90  1  0  0  0  0
 61 60  1  0  0  0  0
 62 97  1  0  0  0  0
 62 96  1  0  0  0  0
 62 98  1  0  0  0  0
 63 94  1  0  0  0  0
 64 66  1  0  0  0  0
 64 44  1  0  0  0  0
 65113  1  0  0  0  0
 65 64  1  0  0  0  0
 66103  1  0  0  0  0
 66104  1  0  0  0  0
 67 64  1  0  0  0  0
 67115  1  0  0  0  0
 68 40  1  0  0  0  0
 68 70  1  0  0  0  0
 69123  1  0  0  0  0
 69 68  1  0  0  0  0
 70121  1  0  0  0  0
 70122  1  0  0  0  0
 70120  1  0  0  0  0
 71119  1  0  0  0  0
 71118  1  0  0  0  0
 71 68  1  0  0  0  0
 75 57  1  0  0  0  0
 76 57  1  0  0  0  0
 77 57  1  0  0  0  0
 79 58  1  0  0  0  0
 81 51  1  0  0  0  0
 82 51  1  0  0  0  0
 89 50  1  0  0  0  0
 91 61  1  0  0  0  0
 92 61  1  0  0  0  0
 93 63  1  0  0  0  0
 95 63  1  0  0  0  0
 99 53  1  0  0  0  0
101 53  1  0  0  0  0
102 66  1  0  0  0  0
105 54  1  0  0  0  0
106 54  1  0  0  0  0
108 55  1  0  0  0  0
109 55  1  0  0  0  0
110 55  1  0  0  0  0
111 65  1  0  0  0  0
112 65  1  0  0  0  0
114 67  1  0  0  0  0
116 67  1  0  0  0  0
117 71  1  0  0  0  0
124 69  1  0  0  0  0
125 69  1  0  0  0  0
130 21  1  0  0  0  0
131  5  1  0  0  0  0
132 15  1  0  0  0  0
133 17  1  0  0  0  0
138272  1  0  0  0  0
139138  1  0  0  0  0
139159  1  0  0  0  0
140144  1  0  0  0  0
140139  2  0  0  0  0
141140  1  0  0  0  0
142141  2  0  0  0  0
142143  1  0  0  0  0
143185  1  0  0  0  0
143138  3  0  0  0  0
144148  1  0  0  0  0
144145  2  0  0  0  0
146154  1  0  0  0  0
146145  1  0  0  0  0
147141  1  0  0  0  0
147146  2  0  0  0  0
148155  2  0  0  0  0
148149  1  0  0  0  0
149158  2  0  0  0  0
150149  1  0  0  0  0
151150  1  0  0  0  0
151145  1  0  0  0  0
152153  1  0  0  0  0
152151  2  0  0  0  0
153154  2  0  0  0  0
155156  1  0  0  0  0
156157  2  0  0  0  0
156273  1  0  0  0  0
158157  1  0  0  0  0
160155  1  0  0  0  0
161160  1  0  0  0  0
161159  1  0  0  0  0
161183  1  0  0  0  0
162163  2  0  0  0  0
162271  1  0  0  0  0
164163  1  0  0  0  0
164168  2  0  0  0  0
165171  2  0  0  0  0
165164  1  0  0  0  0
166165  1  0  0  0  0
166265  1  0  0  0  0
166167  2  0  0  0  0
167162  1  0  0  0  0
167197  1  0  0  0  0
168172  1  0  0  0  0
169168  1  0  0  0  0
169175  1  0  0  0  0
170169  2  0  0  0  0
170178  1  0  0  0  0
171170  1  0  0  0  0
172173  2  0  0  0  0
172179  1  0  0  0  0
173174  1  0  0  0  0
175174  1  0  0  0  0
175176  2  0  0  0  0
176263  1  0  0  0  0
177176  1  0  0  0  0
178264  1  0  0  0  0
178177  2  0  0  0  0
179183  1  0  0  0  0
180179  2  0  0  0  0
180274  1  0  0  0  0
181182  2  0  0  0  0
181180  1  0  0  0  0
182266  1  0  0  0  0
182173  1  0  0  0  0
184163  1  0  0  0  0
184161  1  0  0  0  0
185186  1  0  0  0  0
186221  1  0  0  0  0
186222  1  0  0  0  0
186223  1  0  0  0  0
187224  1  0  0  0  0
187185  1  0  0  0  0
187225  1  0  0  0  0
188220  1  0  0  0  0
188185  1  0  0  0  0
189157  1  0  0  0  0
189190  1  0  0  0  0
189191  1  0  0  0  0
190237  1  0  0  0  0
191244  1  0  0  0  0
192189  1  0  0  0  0
193153  1  0  0  0  0
193196  1  0  0  0  0
194193  1  0  0  0  0
195215  1  0  0  0  0
195193  1  0  0  0  0
195217  1  0  0  0  0
196209  1  0  0  0  0
196211  1  0  0  0  0
196210  1  0  0  0  0
197200  1  0  0  0  0
197199  1  0  0  0  0
198227  1  0  0  0  0
198197  1  0  0  0  0
199234  1  0  0  0  0
199233  1  0  0  0  0
199235  1  0  0  0  0
200231  1  0  0  0  0
201203  1  0  0  0  0
201181  1  0  0  0  0
202250  1  0  0  0  0
202201  1  0  0  0  0
203240  1  0  0  0  0
203241  1  0  0  0  0
204201  1  0  0  0  0
204252  1  0  0  0  0
205177  1  0  0  0  0
205207  1  0  0  0  0
206260  1  0  0  0  0
206205  1  0  0  0  0
207258  1  0  0  0  0
207259  1  0  0  0  0
207257  1  0  0  0  0
208256  1  0  0  0  0
208255  1  0  0  0  0
208205  1  0  0  0  0
212194  1  0  0  0  0
213194  1  0  0  0  0
214194  1  0  0  0  0
216195  1  0  0  0  0
218188  1  0  0  0  0
219188  1  0  0  0  0
226187  1  0  0  0  0
228198  1  0  0  0  0
229198  1  0  0  0  0
230200  1  0  0  0  0
232200  1  0  0  0  0
236190  1  0  0  0  0
238190  1  0  0  0  0
239203  1  0  0  0  0
242191  1  0  0  0  0
243191  1  0  0  0  0
245192  1  0  0  0  0
246192  1  0  0  0  0
247192  1  0  0  0  0
248202  1  0  0  0  0
249202  1  0  0  0  0
251204  1  0  0  0  0
253204  1  0  0  0  0
254208  1  0  0  0  0
261206  1  0  0  0  0
262206  1  0  0  0  0
267158  1  0  0  0  0
268142  1  0  0  0  0
269152  1  0  0  0  0
270154  1  0  0  0  0
M  END
