energy: -195.865383674302 gnorm: 0.000186479570 xtb: 6.7.1 (edcfbbe)_energy: -195.865383674302 gnorm: 0.000186479570 xtb: 6.7.1 (edcfbbe)
 OpenBabel03202513133D

274296  0  0  0  0  0  0  0  0999 V2000
   -0.8816   -2.0296    1.3475 C   0  0  0  0  0  0  0  0  0  0  0  0
   -1.3407   -0.9027    0.6651 C   0  0  0  0  0  0  0  0  0  0  0  0
   -2.5828   -0.9539   -0.0291 C   0  0  0  0  0  0  0  0  0  0  0  0
   -3.1673   -2.2675   -0.1413 C   0  0  0  0  0  0  0  0  0  0  0  0
   -2.6068   -3.3934    0.5061 C   0  0  0  0  0  0  0  0  0  0  0  0
   -1.5193   -3.2733    1.3348 C   0  0  0  0  0  0  0  0  0  0  0  0
   -3.4022    0.1490   -0.4502 C   0  0  0  0  0  5  0  0  0  0  0  0
   -4.7208   -0.1659   -0.8419 C   0  0  0  0  0  5  0  0  0  0  0  0
   -5.1074   -1.5079   -1.0916 C   0  0  0  0  0  5  0  0  0  0  0  0
   -4.3203   -2.5248   -0.7601 N   0  0  0  0  0  4  0  0  0  0  0  0
   -3.1296    1.5569   -0.3718 C   0  0  0  0  0  0  0  0  0  0  0  0
   -4.2608    2.4372   -0.2200 C   0  0  0  0  0  0  0  0  0  0  0  0
   -5.5043    2.0840   -0.5266 N   0  0  0  0  0  0  0  0  0  0  0  0
   -5.7185    0.8399   -0.9574 C   0  0  0  0  0  0  0  0  0  0  0  0
   -6.9917    0.5065   -1.4512 C   0  0  0  0  0  0  0  0  0  0  0  0
   -7.3207   -0.7896   -1.8395 C   0  0  0  0  0  5  0  0  0  0  0  0
   -6.3794   -1.7858   -1.6420 C   0  0  0  0  0  5  0  0  0  0  0  0
   -1.8771    2.1946   -0.4994 C   0  0  0  0  0  0  0  0  0  0  0  0
   -1.7363    3.5142   -0.0793 C   0  0  0  0  0  0  0  0  0  0  0  0
   -2.8118    4.3058    0.3374 C   0  0  0  0  0  0  0  0  0  0  0  0
   -4.0715    3.7748    0.1955 C   0  0  0  0  0  0  0  0  0  0  0  0
   -0.5912    0.1873    0.8284 O   0  0  0  0  0  0  0  0  0  0  0  0
   -0.8555    1.5780   -1.0981 O   0  0  0  0  0  0  0  0  0  0  0  0
    0.1048    0.8598   -0.2732 B   0  0  1  0  0  0  0  0  0  0  0  0
    1.0531   -2.3114   -1.2574 C   0  0  0  0  0  5  0  0  0  0  0  0
    1.5267   -1.0757   -0.8167 C   0  0  0  0  0  5  0  0  0  0  0  0
    2.7609   -1.0015   -0.1113 C   0  0  0  0  0  0  0  0  0  0  0  0
    3.3207   -2.2728    0.2776 C   0  0  0  0  0  0  0  0  0  0  0  0
    2.7454   -3.4994   -0.1308 C   0  0  0  0  0  5  0  0  0  0  0  0
    1.6677   -3.5358   -0.9795 C   0  0  0  0  0  5  0  0  0  0  0  0
    3.5942    0.1530    0.0835 C   0  0  0  0  0  0  0  0  0  0  0  0
    4.9030   -0.0941    0.5501 C   0  0  0  0  0  0  0  0  0  0  0  0
    5.2630   -1.3618    1.0770 C   0  0  0  0  0  0  0  0  0  0  0  0
    4.4618   -2.4147    0.9521 N   0  0  0  0  0  0  0  0  0  0  0  0
    3.3472    1.5172   -0.2917 C   0  0  0  0  0  0  0  0  0  0  0  0
    4.4964    2.3275   -0.6075 C   0  0  0  0  0  0  0  0  0  0  0  0
    5.7298    2.0262   -0.2148 N   0  0  0  0  0  0  0  0  0  0  0  0
    5.9174    0.8973    0.4684 C   0  0  0  0  0  0  0  0  0  0  0  0
    7.1834    0.6594    1.0394 C   0  0  0  0  0  0  0  0  0  0  0  0
    7.4831   -0.5300    1.6893 C   0  0  0  0  0  0  0  0  0  0  0  0
    6.5228   -1.5335    1.6870 C   0  0  0  0  0  0  0  0  0  0  0  0
    2.1060    2.1891   -0.3187 C   0  0  0  0  0  0  0  0  0  0  0  0
    1.9961    3.3935   -1.0082 C   0  0  0  0  0  0  0  0  0  0  0  0
    3.0910    4.0619   -1.5655 C   0  0  0  0  0  0  0  0  0  0  0  0
    4.3383    3.5510   -1.2965 C   0  0  0  0  0  0  0  0  0  0  0  0
    1.0659    1.7336    0.3833 O   0  0  0  0  0  0  0  0  0  0  0  0
    0.7984   -0.0304   -1.2085 O   0  0  0  0  0  0  0  0  0  0  0  0
   -1.0823   -4.3796    2.2793 C   0  0  0  0  0  0  0  0  0  0  0  0
    0.4309   -4.3508    2.5239 C   0  0  0  0  0  0  0  0  0  0  0  0
   -1.4794   -5.7685    1.7679 C   0  0  0  0  0  0  0  0  0  0  0  0
   -1.8096   -4.1201    3.6092 C   0  0  0  0  0  0  0  0  0  0  0  0
   -2.6287    5.7191    0.8660 C   0  0  0  0  0  0  0  0  0  0  0  0
   -3.2683    5.8010    2.2591 C   0  0  0  0  0  0  0  0  0  0  0  0
   -1.1552    6.1144    0.9907 C   0  0  0  0  0  0  0  0  0  0  0  0
   -3.3191    6.7073   -0.0837 C   0  0  0  0  0  0  0  0  0  0  0  0
   -8.6994   -1.0600   -2.4213 C   0  0  0  0  0  0  0  0  0  0  0  0
   -8.8874   -2.5244   -2.8244 C   0  0  0  0  0  0  0  0  0  0  0  0
   -8.8881   -0.1875   -3.6702 C   0  0  0  0  0  0  0  0  0  0  0  0
   -9.7611   -0.7050   -1.3712 C   0  0  0  0  0  0  0  0  0  0  0  0
    1.2148   -4.8058   -1.6786 C   0  0  0  0  0  0  0  0  0  0  0  0
   -0.2991   -4.8074   -1.9219 C   0  0  0  0  0  0  0  0  0  0  0  0
    1.5967   -6.0661   -0.8954 C   0  0  0  0  0  0  0  0  0  0  0  0
    1.9404   -4.8321   -3.0343 C   0  0  0  0  0  0  0  0  0  0  0  0
    2.9417    5.3355   -2.3815 C   0  0  0  0  0  0  0  0  0  0  0  0
    3.5962    5.1112   -3.7518 C   0  0  0  0  0  0  0  0  0  0  0  0
    3.6431    6.4888   -1.6512 C   0  0  0  0  0  0  0  0  0  0  0  0
    1.4779    5.7223   -2.6065 C   0  0  0  0  0  0  0  0  0  0  0  0
    8.8238   -0.7807    2.3621 C   0  0  0  0  0  0  0  0  0  0  0  0
    9.7539    0.4325    2.2849 C   0  0  0  0  0  0  0  0  0  0  0  0
    8.5782   -1.1065    3.8419 C   0  0  0  0  0  0  0  0  0  0  0  0
    9.5147   -1.9656    1.6734 C   0  0  0  0  0  0  0  0  0  0  0  0
  -10.7550   -0.9081   -1.7636 H   0  0  0  0  0  0  0  0  0  0  0  0
   -9.7118    0.3446   -1.0957 H   0  0  0  0  0  0  0  0  0  0  0  0
   -9.6164   -1.3012   -0.4728 H   0  0  0  0  0  0  0  0  0  0  0  0
   -9.8763   -2.6553   -3.2587 H   0  0  0  0  0  0  0  0  0  0  0  0
   -8.8108   -3.1817   -1.9618 H   0  0  0  0  0  0  0  0  0  0  0  0
   -8.1515   -2.8226   -3.5673 H   0  0  0  0  0  0  0  0  0  0  0  0
   -9.8653   -0.3734   -4.1103 H   0  0  0  0  0  0  0  0  0  0  0  0
   -8.1265   -0.4210   -4.4112 H   0  0  0  0  0  0  0  0  0  0  0  0
   -8.8184    0.8698   -3.4312 H   0  0  0  0  0  0  0  0  0  0  0  0
   -1.5230   -4.8688    4.3446 H   0  0  0  0  0  0  0  0  0  0  0  0
   -2.8876   -4.1641    3.4690 H   0  0  0  0  0  0  0  0  0  0  0  0
   -1.5562   -3.1362    3.9969 H   0  0  0  0  0  0  0  0  0  0  0  0
    0.7397   -5.2570    3.0409 H   0  0  0  0  0  0  0  0  0  0  0  0
    0.7149   -3.5064    3.1458 H   0  0  0  0  0  0  0  0  0  0  0  0
    0.9750   -4.2813    1.5857 H   0  0  0  0  0  0  0  0  0  0  0  0
   -1.0882   -6.5307    2.4388 H   0  0  0  0  0  0  0  0  0  0  0  0
   -1.0787   -5.9484    0.7744 H   0  0  0  0  0  0  0  0  0  0  0  0
   -2.5593   -5.8828    1.7346 H   0  0  0  0  0  0  0  0  0  0  0  0
   -0.6222   -5.7968   -2.2390 H   0  0  0  0  0  0  0  0  0  0  0  0
   -0.5745   -4.1067   -2.7051 H   0  0  0  0  0  0  0  0  0  0  0  0
   -0.8383   -4.5368   -1.0179 H   0  0  0  0  0  0  0  0  0  0  0  0
    1.6416   -5.7110   -3.6015 H   0  0  0  0  0  0  0  0  0  0  0  0
    3.0182   -4.8609   -2.8891 H   0  0  0  0  0  0  0  0  0  0  0  0
    1.6981   -3.9444   -3.6140 H   0  0  0  0  0  0  0  0  0  0  0  0
    1.1952   -6.9441   -1.3972 H   0  0  0  0  0  0  0  0  0  0  0  0
    1.1961   -6.0355    0.1139 H   0  0  0  0  0  0  0  0  0  0  0  0
    2.6754   -6.1839   -0.8396 H   0  0  0  0  0  0  0  0  0  0  0  0
   -3.1521    6.8030    2.6668 H   0  0  0  0  0  0  0  0  0  0  0  0
   -2.7879    5.0955    2.9334 H   0  0  0  0  0  0  0  0  0  0  0  0
   -4.3285    5.5679    2.2200 H   0  0  0  0  0  0  0  0  0  0  0  0
    3.5256    7.4128   -2.2134 H   0  0  0  0  0  0  0  0  0  0  0  0
    4.7048    6.2924   -1.5338 H   0  0  0  0  0  0  0  0  0  0  0  0
    3.2099    6.6278   -0.6629 H   0  0  0  0  0  0  0  0  0  0  0  0
   -1.0816    7.1024    1.4412 H   0  0  0  0  0  0  0  0  0  0  0  0
   -0.6797    6.1581    0.0136 H   0  0  0  0  0  0  0  0  0  0  0  0
   -0.6133    5.4135    1.6212 H   0  0  0  0  0  0  0  0  0  0  0  0
   -3.1779    7.7262    0.2709 H   0  0  0  0  0  0  0  0  0  0  0  0
   -4.3856    6.5119   -0.1476 H   0  0  0  0  0  0  0  0  0  0  0  0
   -2.8966    6.6272   -1.0830 H   0  0  0  0  0  0  0  0  0  0  0  0
    3.5050    6.0072   -4.3623 H   0  0  0  0  0  0  0  0  0  0  0  0
    3.1075    4.2888   -4.2697 H   0  0  0  0  0  0  0  0  0  0  0  0
    4.6508    4.8717   -3.6500 H   0  0  0  0  0  0  0  0  0  0  0  0
    1.4289    6.5951   -3.2547 H   0  0  0  0  0  0  0  0  0  0  0  0
    0.9939    5.9782   -1.6668 H   0  0  0  0  0  0  0  0  0  0  0  0
    0.9281    4.9147   -3.0839 H   0  0  0  0  0  0  0  0  0  0  0  0
    9.6659   -1.7512    0.6175 H   0  0  0  0  0  0  0  0  0  0  0  0
    8.9230   -2.8728    1.7559 H   0  0  0  0  0  0  0  0  0  0  0  0
   10.4847   -2.1478    2.1305 H   0  0  0  0  0  0  0  0  0  0  0  0
    8.0732   -0.2763    4.3311 H   0  0  0  0  0  0  0  0  0  0  0  0
    9.5256   -1.2794    4.3475 H   0  0  0  0  0  0  0  0  0  0  0  0
    7.9639   -1.9950    3.9566 H   0  0  0  0  0  0  0  0  0  0  0  0
    9.3044    1.3009    2.7606 H   0  0  0  0  0  0  0  0  0  0  0  0
    9.9970    0.6759    1.2535 H   0  0  0  0  0  0  0  0  0  0  0  0
   10.6835    0.2083    2.8038 H   0  0  0  0  0  0  0  0  0  0  0  0
    7.9032    1.4537    0.9382 H   0  0  0  0  0  0  0  0  0  0  0  0
    6.7119   -2.4993    2.1278 H   0  0  0  0  0  0  0  0  0  0  0  0
    3.2708   -4.3835    0.1893 H   0  0  0  0  0  0  0  0  0  0  0  0
    5.2468    4.0662   -1.5624 H   0  0  0  0  0  0  0  0  0  0  0  0
   -4.9669    4.3521    0.3577 H   0  0  0  0  0  0  0  0  0  0  0  0
   -3.1500   -4.3149    0.3804 H   0  0  0  0  0  0  0  0  0  0  0  0
   -7.7059    1.3120   -1.5122 H   0  0  0  0  0  0  0  0  0  0  0  0
   -6.5796   -2.8189   -1.8700 H   0  0  0  0  0  0  0  0  0  0  0  0
    0.1588   -2.2672   -1.8579 H   0  0  0  0  0  0  0  0  0  0  0  0
    0.0204   -1.8784    1.9182 H   0  0  0  0  0  0  0  0  0  0  0  0
   -0.7356    3.9077   -0.0874 H   0  0  0  0  0  0  0  0  0  0  0  0
    1.0034    3.7978   -1.0965 H   0  0  0  0  0  0  0  0  0  0  0  0
   -0.8816   -2.0296    9.3475 C   0  0  0  0  0  0  0  0  0  0  0  0
   -1.3407   -0.9027    8.6651 C   0  0  0  0  0  0  0  0  0  0  0  0
   -2.5828   -0.9539    7.9709 C   0  0  0  0  0  0  0  0  0  0  0  0
   -3.1673   -2.2675    7.8587 C   0  0  0  0  0  0  0  0  0  0  0  0
   -2.6068   -3.3934    8.5061 C   0  0  0  0  0  0  0  0  0  0  0  0
   -1.5193   -3.2733    9.3348 C   0  0  0  0  0  0  0  0  0  0  0  0
   -3.4022    0.1490    7.5498 C   0  0  0  0  0  5  0  0  0  0  0  0
   -4.7208   -0.1659    7.1581 C   0  0  0  0  0  5  0  0  0  0  0  0
   -5.1074   -1.5079    6.9084 C   0  0  0  0  0  5  0  0  0  0  0  0
   -4.3203   -2.5248    7.2399 N   0  0  0  0  0  4  0  0  0  0  0  0
   -3.1296    1.5569    7.6282 C   0  0  0  0  0  0  0  0  0  0  0  0
   -4.2608    2.4372    7.7800 C   0  0  0  0  0  0  0  0  0  0  0  0
   -5.5043    2.0840    7.4734 N   0  0  0  0  0  0  0  0  0  0  0  0
   -5.7185    0.8399    7.0426 C   0  0  0  0  0  0  0  0  0  0  0  0
   -6.9917    0.5065    6.5488 C   0  0  0  0  0  0  0  0  0  0  0  0
   -7.3207   -0.7896    6.1605 C   0  0  0  0  0  5  0  0  0  0  0  0
   -6.3794   -1.7858    6.3580 C   0  0  0  0  0  5  0  0  0  0  0  0
   -1.8771    2.1946    7.5006 C   0  0  0  0  0  0  0  0  0  0  0  0
   -1.7363    3.5142    7.9207 C   0  0  0  0  0  0  0  0  0  0  0  0
   -2.8118    4.3058    8.3374 C   0  0  0  0  0  0  0  0  0  0  0  0
   -4.0715    3.7748    8.1955 C   0  0  0  0  0  0  0  0  0  0  0  0
   -0.5912    0.1873    8.8284 O   0  0  0  0  0  0  0  0  0  0  0  0
   -0.8555    1.5780    6.9019 O   0  0  0  0  0  0  0  0  0  0  0  0
    0.1048    0.8598    7.7268 B   0  0  1  0  0  0  0  0  0  0  0  0
    1.0531   -2.3114    6.7426 C   0  0  0  0  0  5  0  0  0  0  0  0
    1.5267   -1.0757    7.1833 C   0  0  0  0  0  5  0  0  0  0  0  0
    2.7609   -1.0015    7.8887 C   0  0  0  0  0  0  0  0  0  0  0  0
    3.3207   -2.2728    8.2776 C   0  0  0  0  0  0  0  0  0  0  0  0
    2.7454   -3.4994    7.8692 C   0  0  0  0  0  5  0  0  0  0  0  0
    1.6677   -3.5358    7.0205 C   0  0  0  0  0  5  0  0  0  0  0  0
    3.5942    0.1530    8.0835 C   0  0  0  0  0  0  0  0  0  0  0  0
    4.9030   -0.0941    8.5501 C   0  0  0  0  0  0  0  0  0  0  0  0
    5.2630   -1.3618    9.0770 C   0  0  0  0  0  0  0  0  0  0  0  0
    4.4618   -2.4147    8.9521 N   0  0  0  0  0  0  0  0  0  0  0  0
    3.3472    1.5172    7.7083 C   0  0  0  0  0  0  0  0  0  0  0  0
    4.4964    2.3275    7.3925 C   0  0  0  0  0  0  0  0  0  0  0  0
    5.7298    2.0262    7.7852 N   0  0  0  0  0  0  0  0  0  0  0  0
    5.9174    0.8973    8.4684 C   0  0  0  0  0  0  0  0  0  0  0  0
    7.1834    0.6594    9.0394 C   0  0  0  0  0  0  0  0  0  0  0  0
    7.4831   -0.5300    9.6893 C   0  0  0  0  0  0  0  0  0  0  0  0
    6.5228   -1.5335    9.6870 C   0  0  0  0  0  0  0  0  0  0  0  0
    2.1060    2.1891    7.6813 C   0  0  0  0  0  0  0  0  0  0  0  0
    1.9961    3.3935    6.9918 C   0  0  0  0  0  0  0  0  0  0  0  0
    3.0910    4.0619    6.4345 C   0  0  0  0  0  0  0  0  0  0  0  0
    4.3383    3.5510    6.7035 C   0  0  0  0  0  0  0  0  0  0  0  0
    1.0659    1.7336    8.3833 O   0  0  0  0  0  0  0  0  0  0  0  0
    0.7984   -0.0304    6.7915 O   0  0  0  0  0  0  0  0  0  0  0  0
   -1.0823   -4.3796   10.2793 C   0  0  0  0  0  0  0  0  0  0  0  0
    0.4309   -4.3508   10.5239 C   0  0  0  0  0  0  0  0  0  0  0  0
   -1.4794   -5.7685    9.7679 C   0  0  0  0  0  0  0  0  0  0  0  0
   -1.8096   -4.1201   11.6092 C   0  0  0  0  0  0  0  0  0  0  0  0
   -2.6287    5.7191    8.8660 C   0  0  0  0  0  0  0  0  0  0  0  0
   -3.2683    5.8010   10.2591 C   0  0  0  0  0  0  0  0  0  0  0  0
   -1.1552    6.1144    8.9907 C   0  0  0  0  0  0  0  0  0  0  0  0
   -3.3191    6.7073    7.9163 C   0  0  0  0  0  0  0  0  0  0  0  0
   -8.6994   -1.0600    5.5787 C   0  0  0  0  0  0  0  0  0  0  0  0
   -8.8874   -2.5244    5.1756 C   0  0  0  0  0  0  0  0  0  0  0  0
   -8.8881   -0.1875    4.3298 C   0  0  0  0  0  0  0  0  0  0  0  0
   -9.7611   -0.7050    6.6288 C   0  0  0  0  0  0  0  0  0  0  0  0
    1.2148   -4.8058    6.3214 C   0  0  0  0  0  0  0  0  0  0  0  0
   -0.2991   -4.8074    6.0781 C   0  0  0  0  0  0  0  0  0  0  0  0
    1.5967   -6.0661    7.1046 C   0  0  0  0  0  0  0  0  0  0  0  0
    1.9404   -4.8321    4.9657 C   0  0  0  0  0  0  0  0  0  0  0  0
    2.9417    5.3355    5.6185 C   0  0  0  0  0  0  0  0  0  0  0  0
    3.5962    5.1112    4.2482 C   0  0  0  0  0  0  0  0  0  0  0  0
    3.6431    6.4888    6.3488 C   0  0  0  0  0  0  0  0  0  0  0  0
    1.4779    5.7223    5.3935 C   0  0  0  0  0  0  0  0  0  0  0  0
    8.8238   -0.7807   10.3621 C   0  0  0  0  0  0  0  0  0  0  0  0
    9.7539    0.4325   10.2849 C   0  0  0  0  0  0  0  0  0  0  0  0
    8.5782   -1.1065   11.8419 C   0  0  0  0  0  0  0  0  0  0  0  0
    9.5147   -1.9656    9.6734 C   0  0  0  0  0  0  0  0  0  0  0  0
  -10.7550   -0.9081    6.2364 H   0  0  0  0  0  0  0  0  0  0  0  0
   -9.7118    0.3446    6.9043 H   0  0  0  0  0  0  0  0  0  0  0  0
   -9.6164   -1.3012    7.5272 H   0  0  0  0  0  0  0  0  0  0  0  0
   -9.8763   -2.6553    4.7413 H   0  0  0  0  0  0  0  0  0  0  0  0
   -8.8108   -3.1817    6.0382 H   0  0  0  0  0  0  0  0  0  0  0  0
   -8.1515   -2.8226    4.4327 H   0  0  0  0  0  0  0  0  0  0  0  0
   -9.8653   -0.3734    3.8897 H   0  0  0  0  0  0  0  0  0  0  0  0
   -8.1265   -0.4210    3.5888 H   0  0  0  0  0  0  0  0  0  0  0  0
   -8.8184    0.8698    4.5688 H   0  0  0  0  0  0  0  0  0  0  0  0
   -1.5230   -4.8688   12.3446 H   0  0  0  0  0  0  0  0  0  0  0  0
   -2.8876   -4.1641   11.4690 H   0  0  0  0  0  0  0  0  0  0  0  0
   -1.5562   -3.1362   11.9969 H   0  0  0  0  0  0  0  0  0  0  0  0
    0.7397   -5.2570   11.0409 H   0  0  0  0  0  0  0  0  0  0  0  0
    0.7149   -3.5064   11.1458 H   0  0  0  0  0  0  0  0  0  0  0  0
    0.9750   -4.2813    9.5857 H   0  0  0  0  0  0  0  0  0  0  0  0
   -1.0882   -6.5307   10.4388 H   0  0  0  0  0  0  0  0  0  0  0  0
   -1.0787   -5.9484    8.7744 H   0  0  0  0  0  0  0  0  0  0  0  0
   -2.5593   -5.8828    9.7346 H   0  0  0  0  0  0  0  0  0  0  0  0
   -0.6222   -5.7968    5.7610 H   0  0  0  0  0  0  0  0  0  0  0  0
   -0.5745   -4.1067    5.2949 H   0  0  0  0  0  0  0  0  0  0  0  0
   -0.8383   -4.5368    6.9821 H   0  0  0  0  0  0  0  0  0  0  0  0
    1.6416   -5.7110    4.3985 H   0  0  0  0  0  0  0  0  0  0  0  0
    3.0182   -4.8609    5.1109 H   0  0  0  0  0  0  0  0  0  0  0  0
    1.6981   -3.9444    4.3860 H   0  0  0  0  0  0  0  0  0  0  0  0
    1.1952   -6.9441    6.6028 H   0  0  0  0  0  0  0  0  0  0  0  0
    1.1961   -6.0355    8.1139 H   0  0  0  0  0  0  0  0  0  0  0  0
    2.6754   -6.1839    7.1604 H   0  0  0  0  0  0  0  0  0  0  0  0
   -3.1521    6.8030   10.6668 H   0  0  0  0  0  0  0  0  0  0  0  0
   -2.7879    5.0955   10.9334 H   0  0  0  0  0  0  0  0  0  0  0  0
   -4.3285    5.5679   10.2200 H   0  0  0  0  0  0  0  0  0  0  0  0
    3.5256    7.4128    5.7866 H   0  0  0  0  0  0  0  0  0  0  0  0
    4.7048    6.2924    6.4662 H   0  0  0  0  0  0  0  0  0  0  0  0
    3.2099    6.6278    7.3371 H   0  0  0  0  0  0  0  0  0  0  0  0
   -1.0816    7.1024    9.4412 H   0  0  0  0  0  0  0  0  0  0  0  0
   -0.6797    6.1581    8.0136 H   0  0  0  0  0  0  0  0  0  0  0  0
   -0.6133    5.4135    9.6212 H   0  0  0  0  0  0  0  0  0  0  0  0
   -3.1779    7.7262    8.2709 H   0  0  0  0  0  0  0  0  0  0  0  0
   -4.3856    6.5119    7.8524 H   0  0  0  0  0  0  0  0  0  0  0  0
   -2.8966    6.6272    6.9170 H   0  0  0  0  0  0  0  0  0  0  0  0
    3.5050    6.0072    3.6377 H   0  0  0  0  0  0  0  0  0  0  0  0
    3.1075    4.2888    3.7303 H   0  0  0  0  0  0  0  0  0  0  0  0
    4.6508    4.8717    4.3500 H   0  0  0  0  0  0  0  0  0  0  0  0
    1.4289    6.5951    4.7453 H   0  0  0  0  0  0  0  0  0  0  0  0
    0.9939    5.9782    6.3332 H   0  0  0  0  0  0  0  0  0  0  0  0
    0.9281    4.9147    4.9161 H   0  0  0  0  0  0  0  0  0  0  0  0
    9.6659   -1.7512    8.6175 H   0  0  0  0  0  0  0  0  0  0  0  0
    8.9230   -2.8728    9.7559 H   0  0  0  0  0  0  0  0  0  0  0  0
   10.4847   -2.1478   10.1305 H   0  0  0  0  0  0  0  0  0  0  0  0
    8.0732   -0.2763   12.3311 H   0  0  0  0  0  0  0  0  0  0  0  0
    9.5256   -1.2794   12.3475 H   0  0  0  0  0  0  0  0  0  0  0  0
    7.9639   -1.9950   11.9566 H   0  0  0  0  0  0  0  0  0  0  0  0
    9.3044    1.3009   10.7606 H   0  0  0  0  0  0  0  0  0  0  0  0
    9.9970    0.6759    9.2535 H   0  0  0  0  0  0  0  0  0  0  0  0
   10.6835    0.2083   10.8038 H   0  0  0  0  0  0  0  0  0  0  0  0
    7.9032    1.4537    8.9382 H   0  0  0  0  0  0  0  0  0  0  0  0
    6.7119   -2.4993   10.1278 H   0  0  0  0  0  0  0  0  0  0  0  0
    3.2708   -4.3835    8.1893 H   0  0  0  0  0  0  0  0  0  0  0  0
    5.2468    4.0662    6.4376 H   0  0  0  0  0  0  0  0  0  0  0  0
   -4.9669    4.3521    8.3577 H   0  0  0  0  0  0  0  0  0  0  0  0
   -3.1500   -4.3149    8.3804 H   0  0  0  0  0  0  0  0  0  0  0  0
   -7.7059    1.3120    6.4878 H   0  0  0  0  0  0  0  0  0  0  0  0
   -6.5796   -2.8189    6.1300 H   0  0  0  0  0  0  0  0  0  0  0  0
    0.1588   -2.2672    6.1421 H   0  0  0  0  0  0  0  0  0  0  0  0
    0.0204   -1.8784    9.9182 H   0  0  0  0  0  0  0  0  0  0  0  0
   -0.7356    3.9077    7.9126 H   0  0  0  0  0  0  0  0  0  0  0  0
    1.0034    3.7978    6.9035 H   0  0  0  0  0  0  0  0  0  0  0  0
  1135  1  0  0  0  0
  2  1  1  0  0  0  0
  2 22  1  0  0  0  0
  3  7  1  0  0  0  0
  3  2  2  0  0  0  0
  4  3  1  0  0  0  0
  5  4  2  0  0  0  0
  5  6  1  0  0  0  0
  6 48  1  0  0  0  0
  6  1  3  0  0  0  0
  7 11  1  0  0  0  0
  7  8  2  0  0  0  0
  9 17  1  0  0  0  0
  9  8  1  0  0  0  0
 10  4  1  0  0  0  0
 10  9  2  0  0  0  0
 11 18  2  0  0  0  0
 11 12  1  0  0  0  0
 12 21  2  0  0  0  0
 13 12  1  0  0  0  0
 14 13  1  0  0  0  0
 14  8  1  0  0  0  0
 15 16  1  0  0  0  0
 15 14  2  0  0  0  0
 16 17  2  0  0  0  0
 18 19  1  0  0  0  0
 19 20  2  0  0  0  0
 19136  1  0  0  0  0
 21 20  1  0  0  0  0
 23 18  1  0  0  0  0
 24 23  1  6  0  0  0
 24 22  1  0  0  0  0
 24 46  1  0  0  0  0
 25 26  2  0  0  0  0
 25134  1  0  0  0  0
 27 26  1  0  0  0  0
 27 31  2  0  0  0  0
 28 34  2  0  0  0  0
 28 27  1  0  0  0  0
 29 28  1  0  0  0  0
 29128  1  0  0  0  0
 29 30  2  0  0  0  0
 30 25  1  0  0  0  0
 30 60  1  0  0  0  0
 31 35  1  0  0  0  0
 32 31  1  0  0  0  0
 32 38  1  0  0  0  0
 33 32  2  0  0  0  0
 33 41  1  0  0  0  0
 34 33  1  0  0  0  0
 35 36  2  0  0  0  0
 35 42  1  0  0  0  0
 36 37  1  0  0  0  0
 38 37  1  0  0  0  0
 38 39  2  0  0  0  0
 39126  1  0  0  0  0
 40 39  1  0  0  0  0
 41127  1  0  0  0  0
 41 40  2  0  0  0  0
 42 46  1  0  0  0  0
 43 42  2  0  0  0  0
 43137  1  0  0  0  0
 44 45  2  0  0  0  0
 44 43  1  0  0  0  0
 45129  1  0  0  0  0
 45 36  1  0  0  0  0
 47 26  1  0  0  0  0
 47 24  1  0  0  0  0
 48 49  1  0  0  0  0
 49 84  1  0  0  0  0
 49 85  1  0  0  0  0
 49 86  1  0  0  0  0
 50 87  1  0  0  0  0
 50 48  1  0  0  0  0
 50 88  1  0  0  0  0
 51 83  1  0  0  0  0
 51 48  1  0  0  0  0
 52 20  1  0  0  0  0
 52 53  1  0  0  0  0
 52 54  1  0  0  0  0
 53100  1  0  0  0  0
 54107  1  0  0  0  0
 55 52  1  0  0  0  0
 56 16  1  0  0  0  0
 56 59  1  0  0  0  0
 57 56  1  0  0  0  0
 58 78  1  0  0  0  0
 58 56  1  0  0  0  0
 58 80  1  0  0  0  0
 59 72  1  0  0  0  0
 59 74  1  0  0  0  0
 59 73  1  0  0  0  0
 60 63  1  0  0  0  0
 60 62  1  0  0  0  0
 61 90  1  0  0  0  0
 61 60  1  0  0  0  0
 62 97  1  0  0  0  0
 62 96  1  0  0  0  0
 62 98  1  0  0  0  0
 63 94  1  0  0  0  0
 64 66  1  0  0  0  0
 64 44  1  0  0  0  0
 65113  1  0  0  0  0
 65 64  1  0  0  0  0
 66103  1  0  0  0  0
 66104  1  0  0  0  0
 67 64  1  0  0  0  0
 67115  1  0  0  0  0
 68 40  1  0  0  0  0
 68 70  1  0  0  0  0
 69123  1  0  0  0  0
 69 68  1  0  0  0  0
 70121  1  0  0  0  0
 70122  1  0  0  0  0
 70120  1  0  0  0  0
 71119  1  0  0  0  0
 71118  1  0  0  0  0
 71 68  1  0  0  0  0
 75 57  1  0  0  0  0
 76 57  1  0  0  0  0
 77 57  1  0  0  0  0
 79 58  1  0  0  0  0
 81 51  1  0  0  0  0
 82 51  1  0  0  0  0
 89 50  1  0  0  0  0
 91 61  1  0  0  0  0
 92 61  1  0  0  0  0
 93 63  1  0  0  0  0
 95 63  1  0  0  0  0
 99 53  1  0  0  0  0
101 53  1  0  0  0  0
102 66  1  0  0  0  0
105 54  1  0  0  0  0
106 54  1  0  0  0  0
108 55  1  0  0  0  0
109 55  1  0  0  0  0
110 55  1  0  0  0  0
111 65  1  0  0  0  0
112 65  1  0  0  0  0
114 67  1  0  0  0  0
116 67  1  0  0  0  0
117 71  1  0  0  0  0
124 69  1  0  0  0  0
125 69  1  0  0  0  0
130 21  1  0  0  0  0
131  5  1  0  0  0  0
132 15  1  0  0  0  0
133 17  1  0  0  0  0
138272  1  0  0  0  0
139138  1  0  0  0  0
139159  1  0  0  0  0
140144  1  0  0  0  0
140139  2  0  0  0  0
141140  1  0  0  0  0
142141  2  0  0  0  0
142143  1  0  0  0  0
143185  1  0  0  0  0
143138  3  0  0  0  0
144148  1  0  0  0  0
144145  2  0  0  0  0
146154  1  0  0  0  0
146145  1  0  0  0  0
147141  1  0  0  0  0
147146  2  0  0  0  0
148155  2  0  0  0  0
148149  1  0  0  0  0
149158  2  0  0  0  0
150149  1  0  0  0  0
151150  1  0  0  0  0
151145  1  0  0  0  0
152153  1  0  0  0  0
152151  2  0  0  0  0
153154  2  0  0  0  0
155156  1  0  0  0  0
156157  2  0  0  0  0
156273  1  0  0  0  0
158157  1  0  0  0  0
160155  1  0  0  0  0
161160  1  6  0  0  0
161159  1  0  0  0  0
161183  1  0  0  0  0
162163  2  0  0  0  0
162271  1  0  0  0  0
164163  1  0  0  0  0
164168  2  0  0  0  0
165171  2  0  0  0  0
165164  1  0  0  0  0
166165  1  0  0  0  0
166265  1  0  0  0  0
166167  2  0  0  0  0
167162  1  0  0  0  0
167197  1  0  0  0  0
168172  1  0  0  0  0
169168  1  0  0  0  0
169175  1  0  0  0  0
170169  2  0  0  0  0
170178  1  0  0  0  0
171170  1  0  0  0  0
172173  2  0  0  0  0
172179  1  0  0  0  0
173174  1  0  0  0  0
175174  1  0  0  0  0
175176  2  0  0  0  0
176263  1  0  0  0  0
177176  1  0  0  0  0
178264  1  0  0  0  0
178177  2  0  0  0  0
179183  1  0  0  0  0
180179  2  0  0  0  0
180274  1  0  0  0  0
181182  2  0  0  0  0
181180  1  0  0  0  0
182266  1  0  0  0  0
182173  1  0  0  0  0
184163  1  0  0  0  0
184161  1  0  0  0  0
185186  1  0  0  0  0
186221  1  0  0  0  0
186222  1  0  0  0  0
186223  1  0  0  0  0
187224  1  0  0  0  0
187185  1  0  0  0  0
187225  1  0  0  0  0
188220  1  0  0  0  0
188185  1  0  0  0  0
189157  1  0  0  0  0
189190  1  0  0  0  0
189191  1  0  0  0  0
190237  1  0  0  0  0
191244  1  0  0  0  0
192189  1  0  0  0  0
193153  1  0  0  0  0
193196  1  0  0  0  0
194193  1  0  0  0  0
195215  1  0  0  0  0
195193  1  0  0  0  0
195217  1  0  0  0  0
196209  1  0  0  0  0
196211  1  0  0  0  0
196210  1  0  0  0  0
197200  1  0  0  0  0
197199  1  0  0  0  0
198227  1  0  0  0  0
198197  1  0  0  0  0
199234  1  0  0  0  0
199233  1  0  0  0  0
199235  1  0  0  0  0
200231  1  0  0  0  0
201203  1  0  0  0  0
201181  1  0  0  0  0
202250  1  0  0  0  0
202201  1  0  0  0  0
203240  1  0  0  0  0
203241  1  0  0  0  0
204201  1  0  0  0  0
204252  1  0  0  0  0
205177  1  0  0  0  0
205207  1  0  0  0  0
206260  1  0  0  0  0
206205  1  0  0  0  0
207258  1  0  0  0  0
207259  1  0  0  0  0
207257  1  0  0  0  0
208256  1  0  0  0  0
208255  1  0  0  0  0
208205  1  0  0  0  0
212194  1  0  0  0  0
213194  1  0  0  0  0
214194  1  0  0  0  0
216195  1  0  0  0  0
218188  1  0  0  0  0
219188  1  0  0  0  0
226187  1  0  0  0  0
228198  1  0  0  0  0
229198  1  0  0  0  0
230200  1  0  0  0  0
232200  1  0  0  0  0
236190  1  0  0  0  0
238190  1  0  0  0  0
239203  1  0  0  0  0
242191  1  0  0  0  0
243191  1  0  0  0  0
245192  1  0  0  0  0
246192  1  0  0  0  0
247192  1  0  0  0  0
248202  1  0  0  0  0
249202  1  0  0  0  0
251204  1  0  0  0  0
253204  1  0  0  0  0
254208  1  0  0  0  0
261206  1  0  0  0  0
262206  1  0  0  0  0
267158  1  0  0  0  0
268142  1  0  0  0  0
269152  1  0  0  0  0
270154  1  0  0  0  0
M  END
