 energy: -391.798407245051 gnorm: 0.000647892648 xtb: 6.7.1 (edcfbbe)
          03202514293D

274296  0     0  0            999 V2000
   -1.3383   -1.5340    1.6047 C   0  0  0  0  0  0  0  0  0  0  0  0
   -1.9262   -0.2939    1.3453 C   0  0  0  0  0  0  0  0  0  0  0  0
   -3.3001   -0.2105    0.9797 C   0  0  0  0  0  0  0  0  0  0  0  0
   -3.9748   -1.4820    0.8710 C   0  0  0  0  0  0  0  0  0  0  0  0
   -3.3011   -2.7090    1.0577 C   0  0  0  0  0  0  0  0  0  0  0  0
   -1.9887   -2.7613    1.4515 C   0  0  0  0  0  0  0  0  0  0  0  0
   -4.1180    0.9645    0.8317 C   0  0  0  0  0  5  0  0  0  0  0  0
   -5.5138    0.7489    0.7887 C   0  0  0  0  0  5  0  0  0  0  0  0
   -6.0478   -0.5478    0.5821 C   0  0  0  0  0  5  0  0  0  0  0  0
   -5.2736   -1.6268    0.6087 N   0  0  0  0  0  4  0  0  0  0  0  0
   -3.7445    2.3490    0.6966 C   0  0  0  0  0  0  0  0  0  0  0  0
   -4.7519    3.3420    0.9626 C   0  0  0  0  0  0  0  0  0  0  0  0
   -6.0413    3.0685    1.1434 N   0  0  0  0  0  0  0  0  0  0  0  0
   -6.4408    1.8187    0.9157 C   0  0  0  0  0  0  0  0  0  0  0  0
   -7.8198    1.5812    0.7749 C   0  0  0  0  0  0  0  0  0  0  0  0
   -8.3221    0.3356    0.4137 C   0  0  0  0  0  5  0  0  0  0  0  0
   -7.4271   -0.7171    0.3221 C   0  0  0  0  0  5  0  0  0  0  0  0
   -2.5447    2.8392    0.1369 C   0  0  0  0  0  0  0  0  0  0  0  0
   -2.3375    4.2102   -0.0132 C   0  0  0  0  0  0  0  0  0  0  0  0
   -3.2719    5.1786    0.3649 C   0  0  0  0  0  0  0  0  0  0  0  0
   -4.4604    4.7229    0.8825 C   0  0  0  0  0  0  0  0  0  0  0  0
   -1.1325    0.7580    1.5611 O   0  0  0  0  0  0  0  0  0  0  0  0
   -1.6355    2.0147   -0.3855 O   0  0  0  0  0  0  0  0  0  0  0  0
   -0.5461    1.5636    0.4882 B   0  0  0  0  0  0  0  0  0  0  0  0
    1.0747   -1.1113   -1.2177 C   0  0  0  0  0  5  0  0  0  0  0  0
    1.1281   -0.1453   -0.2132 C   0  0  0  0  0  5  0  0  0  0  0  0
    2.0284   -0.2945    0.8777 C   0  0  0  0  0  0  0  0  0  0  0  0
    2.5732   -1.6219    1.0102 C   0  0  0  0  0  0  0  0  0  0  0  0
    2.4013   -2.6105    0.0099 C   0  0  0  0  0  5  0  0  0  0  0  0
    1.7525   -2.3320   -1.1674 C   0  0  0  0  0  5  0  0  0  0  0  0
    2.5808    0.7364    1.7188 C   0  0  0  0  0  0  0  0  0  0  0  0
    3.5906    0.2994    2.6100 C   0  0  0  0  0  0  0  0  0  0  0  0
    3.8861   -1.0763    2.7962 C   0  0  0  0  0  0  0  0  0  0  0  0
    3.3696   -2.0093    2.0068 N   0  0  0  0  0  0  0  0  0  0  0  0
    2.4506    2.1710    1.5842 C   0  0  0  0  0  0  0  0  0  0  0  0
    3.5984    2.9350    2.0218 C   0  0  0  0  0  0  0  0  0  0  0  0
    4.4998    2.4855    2.8901 N   0  0  0  0  0  0  0  0  0  0  0  0
    4.4473    1.2153    3.2736 C   0  0  0  0  0  0  0  0  0  0  0  0
    5.4077    0.7706    4.2059 C   0  0  0  0  0  0  0  0  0  0  0  0
    5.6356   -0.5776    4.4409 C   0  0  0  0  0  0  0  0  0  0  0  0
    4.8730   -1.4865    3.7233 C   0  0  0  0  0  0  0  0  0  0  0  0
    1.3926    2.9916    1.0954 C   0  0  0  0  0  0  0  0  0  0  0  0
    1.6751    4.2952    0.6668 C   0  0  0  0  0  0  0  0  0  0  0  0
    2.9110    4.9248    0.8126 C   0  0  0  0  0  0  0  0  0  0  0  0
    3.8333    4.2556    1.5773 C   0  0  0  0  0  0  0  0  0  0  0  0
    0.0974    2.7018    1.1110 O   0  0  0  0  0  0  0  0  0  0  0  0
    0.3636    0.9136   -0.4363 O   0  0  0  0  0  0  0  0  0  0  0  0
   -1.2617   -4.0863    1.5983 C   0  0  0  0  0  0  0  0  0  0  0  0
   -0.8888   -4.5321    0.1776 C   0  0  0  0  0  0  0  0  0  0  0  0
   -2.1371   -5.1658    2.2456 C   0  0  0  0  0  0  0  0  0  0  0  0
    0.0169   -3.9547    2.4270 C   0  0  0  0  0  0  0  0  0  0  0  0
   -3.0713    6.6608    0.0871 C   0  0  0  0  0  0  0  0  0  0  0  0
   -3.4903    7.5108    1.2923 C   0  0  0  0  0  0  0  0  0  0  0  0
   -1.6155    6.9992   -0.2403 C   0  0  0  0  0  0  0  0  0  0  0  0
   -3.9497    7.0179   -1.1215 C   0  0  0  0  0  0  0  0  0  0  0  0
   -9.8096    0.1798    0.1385 C   0  0  0  0  0  0  0  0  0  0  0  0
  -10.1836   -1.2448   -0.2784 C   0  0  0  0  0  0  0  0  0  0  0  0
  -10.1981    1.1310   -1.0023 C   0  0  0  0  0  0  0  0  0  0  0  0
  -10.5958    0.5391    1.4064 C   0  0  0  0  0  0  0  0  0  0  0  0
    1.8352   -3.2221   -2.3961 C   0  0  0  0  0  0  0  0  0  0  0  0
    0.5026   -3.3005   -3.1506 C   0  0  0  0  0  0  0  0  0  0  0  0
    2.2878   -4.6440   -2.0520 C   0  0  0  0  0  0  0  0  0  0  0  0
    2.8867   -2.5775   -3.3147 C   0  0  0  0  0  0  0  0  0  0  0  0
    3.2328    6.2922    0.2362 C   0  0  0  0  0  0  0  0  0  0  0  0
    4.5238    6.1834   -0.5874 C   0  0  0  0  0  0  0  0  0  0  0  0
    3.4356    7.2864    1.3869 C   0  0  0  0  0  0  0  0  0  0  0  0
    2.1252    6.8171   -0.6786 C   0  0  0  0  0  0  0  0  0  0  0  0
    6.7931   -1.0093    5.3291 C   0  0  0  0  0  0  0  0  0  0  0  0
    6.7500   -0.2916    6.6821 C   0  0  0  0  0  0  0  0  0  0  0  0
    6.7923   -2.5173    5.5948 C   0  0  0  0  0  0  0  0  0  0  0  0
    8.0914   -0.6375    4.5948 C   0  0  0  0  0  0  0  0  0  0  0  0
  -11.6631    0.4381    1.2228 H   0  0  0  0  0  0  0  0  0  0  0  0
  -10.3991    1.5611    1.7174 H   0  0  0  0  0  0  0  0  0  0  0  0
  -10.3222   -0.1256    2.2228 H   0  0  0  0  0  0  0  0  0  0  0  0
  -11.2520   -1.2931   -0.4776 H   0  0  0  0  0  0  0  0  0  0  0  0
   -9.9569   -1.9584    0.5095 H   0  0  0  0  0  0  0  0  0  0  0  0
   -9.6599   -1.5365   -1.1857 H   0  0  0  0  0  0  0  0  0  0  0  0
  -11.2554    1.0232   -1.2340 H   0  0  0  0  0  0  0  0  0  0  0  0
   -9.6240    0.8998   -1.8972 H   0  0  0  0  0  0  0  0  0  0  0  0
  -10.0115    2.1674   -0.7363 H   0  0  0  0  0  0  0  0  0  0  0  0
    0.4567   -4.9415    2.5551 H   0  0  0  0  0  0  0  0  0  0  0  0
   -0.2019   -3.5372    3.4084 H   0  0  0  0  0  0  0  0  0  0  0  0
    0.7517   -3.3262    1.9324 H   0  0  0  0  0  0  0  0  0  0  0  0
   -0.3559   -5.4805    0.2093 H   0  0  0  0  0  0  0  0  0  0  0  0
   -0.2502   -3.7829   -0.2826 H   0  0  0  0  0  0  0  0  0  0  0  0
   -1.7817   -4.6558   -0.4316 H   0  0  0  0  0  0  0  0  0  0  0  0
   -1.5836   -6.1022    2.2833 H   0  0  0  0  0  0  0  0  0  0  0  0
   -3.0474   -5.3408    1.6801 H   0  0  0  0  0  0  0  0  0  0  0  0
   -2.4027   -4.8902    3.2621 H   0  0  0  0  0  0  0  0  0  0  0  0
    0.5987   -3.9894   -3.9874 H   0  0  0  0  0  0  0  0  0  0  0  0
    0.2135   -2.3334   -3.5508 H   0  0  0  0  0  0  0  0  0  0  0  0
   -0.2929   -3.6587   -2.5034 H   0  0  0  0  0  0  0  0  0  0  0  0
    2.9992   -3.1627   -4.2248 H   0  0  0  0  0  0  0  0  0  0  0  0
    3.8505   -2.5268   -2.8124 H   0  0  0  0  0  0  0  0  0  0  0  0
    2.5897   -1.5671   -3.5853 H   0  0  0  0  0  0  0  0  0  0  0  0
    2.2822   -5.2560   -2.9514 H   0  0  0  0  0  0  0  0  0  0  0  0
    1.6197   -5.0983   -1.3258 H   0  0  0  0  0  0  0  0  0  0  0  0
    3.2990   -4.6480   -1.6539 H   0  0  0  0  0  0  0  0  0  0  0  0
   -3.3737    8.5665    1.0553 H   0  0  0  0  0  0  0  0  0  0  0  0
   -2.8654    7.2794    2.1499 H   0  0  0  0  0  0  0  0  0  0  0  0
   -4.5271    7.3418    1.5652 H   0  0  0  0  0  0  0  0  0  0  0  0
    3.6300    8.2812    0.9917 H   0  0  0  0  0  0  0  0  0  0  0  0
    4.2764    6.9935    2.0089 H   0  0  0  0  0  0  0  0  0  0  0  0
    2.5449    7.3287    2.0100 H   0  0  0  0  0  0  0  0  0  0  0  0
   -1.5061    8.0769   -0.3471 H   0  0  0  0  0  0  0  0  0  0  0  0
   -1.3014    6.5404   -1.1743 H   0  0  0  0  0  0  0  0  0  0  0  0
   -0.9636    6.6658    0.5635 H   0  0  0  0  0  0  0  0  0  0  0  0
   -3.8230    8.0667   -1.3819 H   0  0  0  0  0  0  0  0  0  0  0  0
   -4.9990    6.8393   -0.9014 H   0  0  0  0  0  0  0  0  0  0  0  0
   -3.6740    6.4114   -1.9815 H   0  0  0  0  0  0  0  0  0  0  0  0
    4.7769    7.1515   -1.0144 H   0  0  0  0  0  0  0  0  0  0  0  0
    4.3919    5.4719   -1.3996 H   0  0  0  0  0  0  0  0  0  0  0  0
    5.3578    5.8518    0.0242 H   0  0  0  0  0  0  0  0  0  0  0  0
    2.4486    7.7448   -1.1464 H   0  0  0  0  0  0  0  0  0  0  0  0
    1.2202    7.0255   -0.1161 H   0  0  0  0  0  0  0  0  0  0  0  0
    1.9003    6.1015   -1.4656 H   0  0  0  0  0  0  0  0  0  0  0  0
    8.1659    0.4380    4.4578 H   0  0  0  0  0  0  0  0  0  0  0  0
    8.1218   -1.1100    3.6152 H   0  0  0  0  0  0  0  0  0  0  0  0
    8.9534   -0.9730    5.1671 H   0  0  0  0  0  0  0  0  0  0  0  0
    5.8431   -2.8368    6.0187 H   0  0  0  0  0  0  0  0  0  0  0  0
    7.5797   -2.7587    6.3060 H   0  0  0  0  0  0  0  0  0  0  0  0
    6.9849   -3.0777    4.6831 H   0  0  0  0  0  0  0  0  0  0  0  0
    5.8890   -0.6244    7.2541 H   0  0  0  0  0  0  0  0  0  0  0  0
    6.6908    0.7873    6.5732 H   0  0  0  0  0  0  0  0  0  0  0  0
    7.6462   -0.5250    7.2531 H   0  0  0  0  0  0  0  0  0  0  0  0
    6.0062    1.5372    4.6728 H   0  0  0  0  0  0  0  0  0  0  0  0
    5.0410   -2.5470    3.7911 H   0  0  0  0  0  0  0  0  0  0  0  0
    2.8920   -3.5500    0.2003 H   0  0  0  0  0  0  0  0  0  0  0  0
    4.7685    4.6965    1.8798 H   0  0  0  0  0  0  0  0  0  0  0  0
   -5.2771    5.3838    1.1243 H   0  0  0  0  0  0  0  0  0  0  0  0
   -3.8988   -3.5922    0.9060 H   0  0  0  0  0  0  0  0  0  0  0  0
   -8.4647    2.4359    0.9009 H   0  0  0  0  0  0  0  0  0  0  0  0
   -7.7382   -1.7085    0.0390 H   0  0  0  0  0  0  0  0  0  0  0  0
    0.4495   -0.8543   -2.0575 H   0  0  0  0  0  0  0  0  0  0  0  0
   -0.3156   -1.4843    1.9424 H   0  0  0  0  0  0  0  0  0  0  0  0
   -1.4078    4.4814   -0.4840 H   0  0  0  0  0  0  0  0  0  0  0  0
    0.8436    4.8164    0.2239 H   0  0  0  0  0  0  0  0  0  0  0  0
    0.0617   -2.4622    7.6306 C   0  0  0  0  0  0  0  0  0  0  0  0
   -0.2972   -1.6332    6.5635 C   0  0  0  0  0  0  0  0  0  0  0  0
   -1.3718   -2.0176    5.7081 C   0  0  0  0  0  0  0  0  0  0  0  0
   -1.8302   -3.3735    5.8864 C   0  0  0  0  0  0  0  0  0  0  0  0
   -1.2954   -4.2263    6.8762 C   0  0  0  0  0  0  0  0  0  0  0  0
   -0.4497   -3.7417    7.8443 C   0  0  0  0  0  0  0  0  0  0  0  0
   -2.1792   -1.1813    4.8577 C   0  0  0  0  0  5  0  0  0  0  0  0
   -3.4362   -1.7033    4.4809 C   0  0  0  0  0  5  0  0  0  0  0  0
   -3.7210   -3.0819    4.6314 C   0  0  0  0  0  5  0  0  0  0  0  0
   -2.8795   -3.9025    5.2522 N   0  0  0  0  0  4  0  0  0  0  0  0
   -1.9668    0.1770    4.4579 C   0  0  0  0  0  0  0  0  0  0  0  0
   -3.1224    0.9739    4.1316 C   0  0  0  0  0  0  0  0  0  0  0  0
   -4.3214    0.4586    3.8987 N   0  0  0  0  0  0  0  0  0  0  0  0
   -4.4683   -0.8674    3.9780 C   0  0  0  0  0  0  0  0  0  0  0  0
   -5.7247   -1.4167    3.6560 C   0  0  0  0  0  0  0  0  0  0  0  0
   -5.9764   -2.7811    3.7435 C   0  0  0  0  0  5  0  0  0  0  0  0
   -4.9506   -3.6023    4.1807 C   0  0  0  0  0  5  0  0  0  0  0  0
   -0.7189    0.8010    4.2713 C   0  0  0  0  0  0  0  0  0  0  0  0
   -0.6514    2.1833    4.1511 C   0  0  0  0  0  0  0  0  0  0  0  0
   -1.7895    3.0035    4.1461 C   0  0  0  0  0  0  0  0  0  0  0  0
   -3.0091    2.3846    4.0441 C   0  0  0  0  0  0  0  0  0  0  0  0
    0.3401   -0.4600    6.5461 O   0  0  0  0  0  0  0  0  0  0  0  0
    0.3888    0.0586    4.2095 O   0  0  0  0  0  0  0  0  0  0  0  0
    1.1800    0.0315    5.4302 B   0  0  0  0  0  0  0  0  0  0  0  0
    2.8246   -2.9979    5.3542 C   0  0  0  0  0  5  0  0  0  0  0  0
    2.7907   -1.7268    5.9155 C   0  0  0  0  0  5  0  0  0  0  0  0
    3.2183   -1.4887    7.2469 C   0  0  0  0  0  0  0  0  0  0  0  0
    3.5079   -2.6925    7.9847 C   0  0  0  0  0  0  0  0  0  0  0  0
    3.5477   -3.9658    7.3686 C   0  0  0  0  0  5  0  0  0  0  0  0
    3.2537   -4.1380    6.0429 C   0  0  0  0  0  5  0  0  0  0  0  0
    3.4693   -0.2215    7.8928 C   0  0  0  0  0  0  0  0  0  0  0  0
    3.9389   -0.3335    9.2266 C   0  0  0  0  0  0  0  0  0  0  0  0
    3.9499   -1.5729    9.9232 C   0  0  0  0  0  0  0  0  0  0  0  0
    3.7620   -2.7248    9.2916 N   0  0  0  0  0  0  0  0  0  0  0  0
    3.4892    1.1269    7.3505 C   0  0  0  0  0  0  0  0  0  0  0  0
    4.3833    2.0446    8.0292 C   0  0  0  0  0  0  0  0  0  0  0  0
    4.8437    1.8700    9.2630 N   0  0  0  0  0  0  0  0  0  0  0  0
    4.5121    0.7653    9.9199 C   0  0  0  0  0  0  0  0  0  0  0  0
    4.8501    0.6737   11.2849 C   0  0  0  0  0  0  0  0  0  0  0  0
    4.6778   -0.5003   12.0018 C   0  0  0  0  0  0  0  0  0  0  0  0
    4.2502   -1.6179   11.2999 C   0  0  0  0  0  0  0  0  0  0  0  0
    2.7505    1.7549    6.3083 C   0  0  0  0  0  0  0  0  0  0  0  0
    3.1510    3.0091    5.8180 C   0  0  0  0  0  0  0  0  0  0  0  0
    4.1745    3.7880    6.3482 C   0  0  0  0  0  0  0  0  0  0  0  0
    4.7717    3.2871    7.4773 C   0  0  0  0  0  0  0  0  0  0  0  0
    1.5938    1.3743    5.7876 O   0  0  0  0  0  0  0  0  0  0  0  0
    2.3494   -0.7608    5.1137 O   0  0  0  0  0  0  0  0  0  0  0  0
   -0.1638   -4.5549    9.0969 C   0  0  0  0  0  0  0  0  0  0  0  0
    0.6617   -3.7843   10.1295 C   0  0  0  0  0  0  0  0  0  0  0  0
    0.5896   -5.8357    8.7246 C   0  0  0  0  0  0  0  0  0  0  0  0
   -1.5093   -4.9181    9.7455 C   0  0  0  0  0  0  0  0  0  0  0  0
   -1.6180    4.5042    4.2876 C   0  0  0  0  0  0  0  0  0  0  0  0
   -2.9603    5.2379    4.2496 C   0  0  0  0  0  0  0  0  0  0  0  0
   -0.9595    4.7634    5.6526 C   0  0  0  0  0  0  0  0  0  0  0  0
   -0.7201    5.0464    3.1709 C   0  0  0  0  0  0  0  0  0  0  0  0
   -7.3136   -3.3965    3.3658 C   0  0  0  0  0  0  0  0  0  0  0  0
   -7.1165   -4.1309    2.0323 C   0  0  0  0  0  0  0  0  0  0  0  0
   -8.4071   -2.3376    3.2113 C   0  0  0  0  0  0  0  0  0  0  0  0
   -7.7729   -4.3842    4.4479 C   0  0  0  0  0  0  0  0  0  0  0  0
    3.3163   -5.4779    5.3328 C   0  0  0  0  0  0  0  0  0  0  0  0
    1.8808   -5.9434    5.0604 C   0  0  0  0  0  0  0  0  0  0  0  0
    4.0336   -6.5421    6.1688 C   0  0  0  0  0  0  0  0  0  0  0  0
    4.0720   -5.3268    4.0053 C   0  0  0  0  0  0  0  0  0  0  0  0
    4.5914    5.1140    5.7394 C   0  0  0  0  0  0  0  0  0  0  0  0
    5.8244    4.8436    4.8658 C   0  0  0  0  0  0  0  0  0  0  0  0
    4.9476    6.1282    6.8345 C   0  0  0  0  0  0  0  0  0  0  0  0
    3.4790    5.7177    4.8770 C   0  0  0  0  0  0  0  0  0  0  0  0
    4.9913   -0.6196   13.4840 C   0  0  0  0  0  0  0  0  0  0  0  0
    5.4277    0.7130   14.0970 C   0  0  0  0  0  0  0  0  0  0  0  0
    3.7324   -1.1016   14.2177 C   0  0  0  0  0  0  0  0  0  0  0  0
    6.1259   -1.6362   13.6723 C   0  0  0  0  0  0  0  0  0  0  0  0
   -8.7637   -4.7614    4.2041 H   0  0  0  0  0  0  0  0  0  0  0  0
   -7.8220   -3.8896    5.4157 H   0  0  0  0  0  0  0  0  0  0  0  0
   -7.1050   -5.2360    4.5316 H   0  0  0  0  0  0  0  0  0  0  0  0
   -8.0694   -4.5003    1.6590 H   0  0  0  0  0  0  0  0  0  0  0  0
   -6.4468   -4.9779    2.1599 H   0  0  0  0  0  0  0  0  0  0  0  0
   -6.6777   -3.4569    1.2999 H   0  0  0  0  0  0  0  0  0  0  0  0
   -9.3562   -2.8245    2.9937 H   0  0  0  0  0  0  0  0  0  0  0  0
   -8.1784   -1.6559    2.3973 H   0  0  0  0  0  0  0  0  0  0  0  0
   -8.5225   -1.7673    4.1310 H   0  0  0  0  0  0  0  0  0  0  0  0
   -1.3406   -5.4645   10.6711 H   0  0  0  0  0  0  0  0  0  0  0  0
   -2.1136   -5.5377    9.0895 H   0  0  0  0  0  0  0  0  0  0  0  0
   -2.0716   -4.0155    9.9756 H   0  0  0  0  0  0  0  0  0  0  0  0
    0.7581   -4.3846   11.0323 H   0  0  0  0  0  0  0  0  0  0  0  0
    0.1742   -2.8497   10.3980 H   0  0  0  0  0  0  0  0  0  0  0  0
    1.6629   -3.5739    9.7640 H   0  0  0  0  0  0  0  0  0  0  0  0
    0.7731   -6.4332    9.6152 H   0  0  0  0  0  0  0  0  0  0  0  0
    1.5452   -5.5788    8.2754 H   0  0  0  0  0  0  0  0  0  0  0  0
    0.0167   -6.4354    8.0217 H   0  0  0  0  0  0  0  0  0  0  0  0
    1.8874   -6.8490    4.4570 H   0  0  0  0  0  0  0  0  0  0  0  0
    1.3230   -5.1749    4.5370 H   0  0  0  0  0  0  0  0  0  0  0  0
    1.3658   -6.1538    5.9933 H   0  0  0  0  0  0  0  0  0  0  0  0
    4.1016   -6.2836    3.4875 H   0  0  0  0  0  0  0  0  0  0  0  0
    5.0969   -5.0126    4.1930 H   0  0  0  0  0  0  0  0  0  0  0  0
    3.5983   -4.6016    3.3505 H   0  0  0  0  0  0  0  0  0  0  0  0
    4.1194   -7.4598    5.5907 H   0  0  0  0  0  0  0  0  0  0  0  0
    3.4818   -6.7725    7.0765 H   0  0  0  0  0  0  0  0  0  0  0  0
    5.0350   -6.2137    6.4380 H   0  0  0  0  0  0  0  0  0  0  0  0
   -2.7986    6.3031    4.4056 H   0  0  0  0  0  0  0  0  0  0  0  0
   -3.6184    4.8825    5.0389 H   0  0  0  0  0  0  0  0  0  0  0  0
   -3.4505    5.0986    3.2892 H   0  0  0  0  0  0  0  0  0  0  0  0
    5.1355    7.1018    6.3867 H   0  0  0  0  0  0  0  0  0  0  0  0
    5.8422    5.8358    7.3763 H   0  0  0  0  0  0  0  0  0  0  0  0
    4.1284    6.2274    7.5430 H   0  0  0  0  0  0  0  0  0  0  0  0
   -0.7620    5.8268    5.7762 H   0  0  0  0  0  0  0  0  0  0  0  0
   -0.0224    4.2214    5.7472 H   0  0  0  0  0  0  0  0  0  0  0  0
   -1.6174    4.4386    6.4562 H   0  0  0  0  0  0  0  0  0  0  0  0
   -0.6945    6.1348    3.2075 H   0  0  0  0  0  0  0  0  0  0  0  0
   -1.0986    4.7251    2.2041 H   0  0  0  0  0  0  0  0  0  0  0  0
    0.2985    4.6824    3.2698 H   0  0  0  0  0  0  0  0  0  0  0  0
    6.1509    5.7626    4.3829 H   0  0  0  0  0  0  0  0  0  0  0  0
    5.5839    4.1039    4.1047 H   0  0  0  0  0  0  0  0  0  0  0  0
    6.6437    4.4657    5.4743 H   0  0  0  0  0  0  0  0  0  0  0  0
    3.7703    6.7139    4.5510 H   0  0  0  0  0  0  0  0  0  0  0  0
    2.5564    5.8036    5.4472 H   0  0  0  0  0  0  0  0  0  0  0  0
    3.2965    5.1182    3.9896 H   0  0  0  0  0  0  0  0  0  0  0  0
    7.0118   -1.3167   13.1273 H   0  0  0  0  0  0  0  0  0  0  0  0
    5.8398   -2.6200   13.3114 H   0  0  0  0  0  0  0  0  0  0  0  0
    6.3806   -1.7194   14.7265 H   0  0  0  0  0  0  0  0  0  0  0  0
    2.9201   -0.3914   14.0781 H   0  0  0  0  0  0  0  0  0  0  0  0
    3.9328   -1.1908   15.2831 H   0  0  0  0  0  0  0  0  0  0  0  0
    3.4054   -2.0701   13.8500 H   0  0  0  0  0  0  0  0  0  0  0  0
    4.6569    1.4702   13.9746 H   0  0  0  0  0  0  0  0  0  0  0  0
    6.3510    1.0681   13.6457 H   0  0  0  0  0  0  0  0  0  0  0  0
    5.6047    0.5808   15.1623 H   0  0  0  0  0  0  0  0  0  0  0  0
    5.2602    1.5652   11.7279 H   0  0  0  0  0  0  0  0  0  0  0  0
    4.1637   -2.5851   11.7685 H   0  0  0  0  0  0  0  0  0  0  0  0
    3.8418   -4.7745    8.0164 H   0  0  0  0  0  0  0  0  0  0  0  0
    5.4994    3.8351    8.0511 H   0  0  0  0  0  0  0  0  0  0  0  0
   -3.9303    2.9211    3.8909 H   0  0  0  0  0  0  0  0  0  0  0  0
   -1.7111   -5.2201    6.9101 H   0  0  0  0  0  0  0  0  0  0  0  0
   -6.4835   -0.7130    3.3584 H   0  0  0  0  0  0  0  0  0  0  0  0
   -5.0722   -4.6703    4.2593 H   0  0  0  0  0  0  0  0  0  0  0  0
    2.4729   -3.0627    4.3371 H   0  0  0  0  0  0  0  0  0  0  0  0
    0.7824   -2.0407    8.3118 H   0  0  0  0  0  0  0  0  0  0  0  0
    0.3355    2.6086    4.0859 H   0  0  0  0  0  0  0  0  0  0  0  0
    2.5637    3.3684    4.9895 H   0  0  0  0  0  0  0  0  0  0  0  0
  1135  1  0  0  0  0
  2  1  1  0  0  0  0
  2 22  1  0  0  0  0
  3  7  1  0  0  0  0
  3  2  2  0  0  0  0
  4  3  1  0  0  0  0
  5  4  2  0  0  0  0
  5  6  1  0  0  0  0
  6 48  1  0  0  0  0
  6  1  3  0  0  0  0
  7 11  1  0  0  0  0
  7  8  2  0  0  0  0
  9 17  1  0  0  0  0
  9  8  1  0  0  0  0
 10  4  1  0  0  0  0
 10  9  2  0  0  0  0
 11 18  2  0  0  0  0
 11 12  1  0  0  0  0
 12 21  2  0  0  0  0
 13 12  1  0  0  0  0
 14 13  1  0  0  0  0
 14  8  1  0  0  0  0
 15 16  1  0  0  0  0
 15 14  2  0  0  0  0
 16 17  2  0  0  0  0
 18 19  1  0  0  0  0
 19 20  2  0  0  0  0
 19136  1  0  0  0  0
 21 20  1  0  0  0  0
 23 18  1  0  0  0  0
 24 23  1  0  0  0  0
 24 22  1  0  0  0  0
 24 46  1  0  0  0  0
 25 26  2  0  0  0  0
 25134  1  0  0  0  0
 27 26  1  0  0  0  0
 27 31  2  0  0  0  0
 28 34  2  0  0  0  0
 28 27  1  0  0  0  0
 29 28  1  0  0  0  0
 29128  1  0  0  0  0
 29 30  2  0  0  0  0
 30 25  1  0  0  0  0
 30 60  1  0  0  0  0
 31 35  1  0  0  0  0
 32 31  1  0  0  0  0
 32 38  1  0  0  0  0
 33 32  2  0  0  0  0
 33 41  1  0  0  0  0
 34 33  1  0  0  0  0
 35 36  2  0  0  0  0
 35 42  1  0  0  0  0
 36 37  1  0  0  0  0
 38 37  1  0  0  0  0
 38 39  2  0  0  0  0
 39126  1  0  0  0  0
 40 39  1  0  0  0  0
 41127  1  0  0  0  0
 41 40  2  0  0  0  0
 42 46  1  0  0  0  0
 43 42  2  0  0  0  0
 43137  1  0  0  0  0
 44 45  2  0  0  0  0
 44 43  1  0  0  0  0
 45129  1  0  0  0  0
 45 36  1  0  0  0  0
 47 26  1  0  0  0  0
 47 24  1  0  0  0  0
 48 49  1  0  0  0  0
 49 84  1  0  0  0  0
 49 85  1  0  0  0  0
 49 86  1  0  0  0  0
 50 87  1  0  0  0  0
 50 48  1  0  0  0  0
 50 88  1  0  0  0  0
 51 83  1  0  0  0  0
 51 48  1  0  0  0  0
 52 20  1  0  0  0  0
 52 53  1  0  0  0  0
 52 54  1  0  0  0  0
 53100  1  0  0  0  0
 54107  1  0  0  0  0
 55 52  1  0  0  0  0
 56 16  1  0  0  0  0
 56 59  1  0  0  0  0
 57 56  1  0  0  0  0
 58 78  1  0  0  0  0
 58 56  1  0  0  0  0
 58 80  1  0  0  0  0
 59 72  1  0  0  0  0
 59 74  1  0  0  0  0
 59 73  1  0  0  0  0
 60 63  1  0  0  0  0
 60 62  1  0  0  0  0
 61 90  1  0  0  0  0
 61 60  1  0  0  0  0
 62 97  1  0  0  0  0
 62 96  1  0  0  0  0
 62 98  1  0  0  0  0
 63 94  1  0  0  0  0
 64 66  1  0  0  0  0
 64 44  1  0  0  0  0
 65113  1  0  0  0  0
 65 64  1  0  0  0  0
 66103  1  0  0  0  0
 66104  1  0  0  0  0
 67 64  1  0  0  0  0
 67115  1  0  0  0  0
 68 40  1  0  0  0  0
 68 70  1  0  0  0  0
 69123  1  0  0  0  0
 69 68  1  0  0  0  0
 70121  1  0  0  0  0
 70122  1  0  0  0  0
 70120  1  0  0  0  0
 71119  1  0  0  0  0
 71118  1  0  0  0  0
 71 68  1  0  0  0  0
 75 57  1  0  0  0  0
 76 57  1  0  0  0  0
 77 57  1  0  0  0  0
 79 58  1  0  0  0  0
 81 51  1  0  0  0  0
 82 51  1  0  0  0  0
 89 50  1  0  0  0  0
 91 61  1  0  0  0  0
 92 61  1  0  0  0  0
 93 63  1  0  0  0  0
 95 63  1  0  0  0  0
 99 53  1  0  0  0  0
101 53  1  0  0  0  0
102 66  1  0  0  0  0
105 54  1  0  0  0  0
106 54  1  0  0  0  0
108 55  1  0  0  0  0
109 55  1  0  0  0  0
110 55  1  0  0  0  0
111 65  1  0  0  0  0
112 65  1  0  0  0  0
114 67  1  0  0  0  0
116 67  1  0  0  0  0
117 71  1  0  0  0  0
124 69  1  0  0  0  0
125 69  1  0  0  0  0
130 21  1  0  0  0  0
131  5  1  0  0  0  0
132 15  1  0  0  0  0
133 17  1  0  0  0  0
138272  1  0  0  0  0
139138  1  0  0  0  0
139159  1  0  0  0  0
140144  1  0  0  0  0
140139  2  0  0  0  0
141140  1  0  0  0  0
142141  2  0  0  0  0
142143  1  0  0  0  0
143185  1  0  0  0  0
143138  3  0  0  0  0
144148  1  0  0  0  0
144145  2  0  0  0  0
146154  1  0  0  0  0
146145  1  0  0  0  0
147141  1  0  0  0  0
147146  2  0  0  0  0
148155  2  0  0  0  0
148149  1  0  0  0  0
149158  2  0  0  0  0
150149  1  0  0  0  0
151150  1  0  0  0  0
151145  1  0  0  0  0
152153  1  0  0  0  0
152151  2  0  0  0  0
153154  2  0  0  0  0
155156  1  0  0  0  0
156157  2  0  0  0  0
156273  1  0  0  0  0
158157  1  0  0  0  0
160155  1  0  0  0  0
161160  1  0  0  0  0
161159  1  0  0  0  0
161183  1  0  0  0  0
162163  2  0  0  0  0
162271  1  0  0  0  0
164163  1  0  0  0  0
164168  2  0  0  0  0
165171  2  0  0  0  0
165164  1  0  0  0  0
166165  1  0  0  0  0
166265  1  0  0  0  0
166167  2  0  0  0  0
167162  1  0  0  0  0
167197  1  0  0  0  0
168172  1  0  0  0  0
169168  1  0  0  0  0
169175  1  0  0  0  0
170169  2  0  0  0  0
170178  1  0  0  0  0
171170  1  0  0  0  0
172173  2  0  0  0  0
172179  1  0  0  0  0
173174  1  0  0  0  0
175174  1  0  0  0  0
175176  2  0  0  0  0
176263  1  0  0  0  0
177176  1  0  0  0  0
178264  1  0  0  0  0
178177  2  0  0  0  0
179183  1  0  0  0  0
180179  2  0  0  0  0
180274  1  0  0  0  0
181182  2  0  0  0  0
181180  1  0  0  0  0
182266  1  0  0  0  0
182173  1  0  0  0  0
184163  1  0  0  0  0
184161  1  0  0  0  0
185186  1  0  0  0  0
186221  1  0  0  0  0
186222  1  0  0  0  0
186223  1  0  0  0  0
187224  1  0  0  0  0
187185  1  0  0  0  0
187225  1  0  0  0  0
188220  1  0  0  0  0
188185  1  0  0  0  0
189157  1  0  0  0  0
189190  1  0  0  0  0
189191  1  0  0  0  0
190237  1  0  0  0  0
191244  1  0  0  0  0
192189  1  0  0  0  0
193153  1  0  0  0  0
193196  1  0  0  0  0
194193  1  0  0  0  0
195215  1  0  0  0  0
195193  1  0  0  0  0
195217  1  0  0  0  0
196209  1  0  0  0  0
196211  1  0  0  0  0
196210  1  0  0  0  0
197200  1  0  0  0  0
197199  1  0  0  0  0
198227  1  0  0  0  0
198197  1  0  0  0  0
199234  1  0  0  0  0
199233  1  0  0  0  0
199235  1  0  0  0  0
200231  1  0  0  0  0
201203  1  0  0  0  0
201181  1  0  0  0  0
202250  1  0  0  0  0
202201  1  0  0  0  0
203240  1  0  0  0  0
203241  1  0  0  0  0
204201  1  0  0  0  0
204252  1  0  0  0  0
205177  1  0  0  0  0
205207  1  0  0  0  0
206260  1  0  0  0  0
206205  1  0  0  0  0
207258  1  0  0  0  0
207259  1  0  0  0  0
207257  1  0  0  0  0
208256  1  0  0  0  0
208255  1  0  0  0  0
208205  1  0  0  0  0
212194  1  0  0  0  0
213194  1  0  0  0  0
214194  1  0  0  0  0
216195  1  0  0  0  0
218188  1  0  0  0  0
219188  1  0  0  0  0
226187  1  0  0  0  0
228198  1  0  0  0  0
229198  1  0  0  0  0
230200  1  0  0  0  0
232200  1  0  0  0  0
236190  1  0  0  0  0
238190  1  0  0  0  0
239203  1  0  0  0  0
242191  1  0  0  0  0
243191  1  0  0  0  0
245192  1  0  0  0  0
246192  1  0  0  0  0
247192  1  0  0  0  0
248202  1  0  0  0  0
249202  1  0  0  0  0
251204  1  0  0  0  0
253204  1  0  0  0  0
254208  1  0  0  0  0
261206  1  0  0  0  0
262206  1  0  0  0  0
267158  1  0  0  0  0
268142  1  0  0  0  0
269152  1  0  0  0  0
270154  1  0  0  0  0
M  END
