 xtb: 6.7.1 (edcfbbe)
          12132412263D

101112  0     0  0            999 V2000
   -0.2551    3.8679    1.8500 C   0  0  0  0  0  0  0  0  0  0  0  0
    0.3762    2.6344    1.7585 C   0  0  0  0  0  0  0  0  0  0  0  0
    1.6441    2.5463    1.1264 C   0  0  0  0  0  0  0  0  0  0  0  0
    2.2251    3.7688    0.6323 C   0  0  0  0  0  0  0  0  0  0  0  0
    1.4517    4.9521    0.5734 C   0  0  0  0  0  0  0  0  0  0  0  0
    0.2351    4.9856    1.1844 C   0  0  0  0  0  0  0  0  0  0  0  0
    2.4528    1.3641    1.0484 C   0  0  0  0  0  0  0  0  0  0  0  0
    3.8329    1.5836    0.8400 C   0  0  0  0  0  0  0  0  0  0  0  0
    4.3070    2.8578    0.4091 C   0  0  0  0  0  0  0  0  0  0  0  0
    3.4878    3.8884    0.2286 N   0  0  0  0  0  0  0  0  0  0  0  0
    2.0474   -0.0090    1.1947 C   0  0  0  0  0  0  0  0  0  0  0  0
    3.0928   -0.9395    1.5431 C   0  0  0  0  0  0  0  0  0  0  0  0
    4.3923   -0.6497    1.5321 N   0  0  0  0  0  0  0  0  0  0  0  0
    4.7742    0.5393    1.0753 C   0  0  0  0  0  0  0  0  0  0  0  0
    6.1477    0.7795    0.8686 C   0  0  0  0  0  0  0  0  0  0  0  0
    6.5668    2.0069    0.3974 C   0  0  0  0  0  0  0  0  0  0  0  0
    5.6834    3.0334    0.1512 C   0  0  0  0  0  0  0  0  0  0  0  0
    0.7666   -0.5568    0.9082 C   0  0  0  0  0  0  0  0  0  0  0  0
    0.5607   -1.9244    1.0869 C   0  0  0  0  0  0  0  0  0  0  0  0
    1.5309   -2.7619    1.6240 C   0  0  0  0  0  0  0  0  0  0  0  0
    2.7857   -2.2824    1.8624 C   0  0  0  0  0  0  0  0  0  0  0  0
   -0.2628    1.5722    2.2687 O   0  0  0  0  0  0  0  0  0  0  0  0
   -0.2431    0.1489    0.3740 O   0  0  0  0  0  0  0  0  0  0  0  0
   -0.8801    6.4213    0.9607 S   0  0  0  0  0  0  0  0  0  0  0  0
    1.2074   -4.4998    2.1067 S   0  0  0  0  0  0  0  0  0  0  0  0
    8.3637    2.2604    0.1610 S   0  0  0  0  0  0  0  0  0  0  0  0
   -2.2535   -2.1701    2.2412 C   0  0  0  0  0  0  0  0  0  0  0  0
   -2.5436   -1.0398    1.4804 C   0  0  0  0  0  0  0  0  0  0  0  0
   -3.2347   -1.1813    0.2390 C   0  0  0  0  0  0  0  0  0  0  0  0
   -3.3762   -2.5263   -0.2625 C   0  0  0  0  0  0  0  0  0  0  0  0
   -2.9673   -3.6407    0.5050 C   0  0  0  0  0  0  0  0  0  0  0  0
   -2.4698   -3.4531    1.7597 C   0  0  0  0  0  0  0  0  0  0  0  0
   -3.9279   -0.1519   -0.4911 C   0  0  0  0  0  0  0  0  0  0  0  0
   -4.7142   -0.5814   -1.5844 C   0  0  0  0  0  0  0  0  0  0  0  0
   -4.5703   -1.8990   -2.1093 C   0  0  0  0  0  0  0  0  0  0  0  0
   -3.9049   -2.8363   -1.4477 N   0  0  0  0  0  0  0  0  0  0  0  0
   -4.0928    1.2336   -0.1321 C   0  0  0  0  0  0  0  0  0  0  0  0
   -5.3463    1.8325   -0.5249 C   0  0  0  0  0  0  0  0  0  0  0  0
   -6.0997    1.3730   -1.5190 N   0  0  0  0  0  0  0  0  0  0  0  0
   -5.7089    0.2702   -2.1511 C   0  0  0  0  0  0  0  0  0  0  0  0
   -6.3639   -0.1189   -3.3361 C   0  0  0  0  0  0  0  0  0  0  0  0
   -6.0781   -1.3398   -3.9087 C   0  0  0  0  0  0  0  0  0  0  0  0
   -5.2156   -2.2387   -3.3186 C   0  0  0  0  0  0  0  0  0  0  0  0
   -3.1600    2.0964    0.5070 C   0  0  0  0  0  0  0  0  0  0  0  0
   -3.6357    3.2653    1.0934 C   0  0  0  0  0  0  0  0  0  0  0  0
   -4.9574    3.6757    0.9499 C   0  0  0  0  0  0  0  0  0  0  0  0
   -5.7993    3.0142    0.1079 C   0  0  0  0  0  0  0  0  0  0  0  0
   -2.1300    0.1213    1.9946 O   0  0  0  0  0  0  0  0  0  0  0  0
   -1.8379    1.9043    0.4512 O   0  0  0  0  0  0  0  0  0  0  0  0
   -1.9188   -4.9029    2.7061 S   0  0  0  0  0  0  0  0  0  0  0  0
   -5.5165    5.1325    1.9050 S   0  0  0  0  0  0  0  0  0  0  0  0
   -6.9335   -1.8611   -5.4398 S   0  0  0  0  0  0  0  0  0  0  0  0
   -1.1392    0.9195    1.2635 B   0  0  0  0  0  0  0  0  0  0  0  0
    8.4715    3.5595   -0.4773 O   0  0  0  0  0  0  0  0  0  0  0  0
    8.7279    2.4608    1.7880 O   0  0  0  0  0  0  0  0  0  0  0  0
    8.2733    3.6498    2.3783 C   0  0  0  0  0  0  0  0  0  0  0  0
   -0.1362   -4.7764    1.1080 O   0  0  0  0  0  0  0  0  0  0  0  0
    0.1247   -5.1132   -0.2311 C   0  0  0  0  0  0  0  0  0  0  0  0
    2.3165   -5.2162    1.4908 O   0  0  0  0  0  0  0  0  0  0  0  0
   -0.9510   -4.3671    3.6534 O   0  0  0  0  0  0  0  0  0  0  0  0
   -3.3529   -5.1096    3.5690 O   0  0  0  0  0  0  0  0  0  0  0  0
   -3.6413   -4.1568    4.5568 C   0  0  0  0  0  0  0  0  0  0  0  0
   -7.7099   -0.7017   -5.8399 O   0  0  0  0  0  0  0  0  0  0  0  0
   -7.9799   -2.9463   -4.7001 O   0  0  0  0  0  0  0  0  0  0  0  0
   -8.9783   -2.3824   -3.8913 C   0  0  0  0  0  0  0  0  0  0  0  0
   -6.8875    5.3437    1.4682 O   0  0  0  0  0  0  0  0  0  0  0  0
   -4.5587    6.2829    1.1721 O   0  0  0  0  0  0  0  0  0  0  0  0
   -4.8735    6.5893   -0.1606 C   0  0  0  0  0  0  0  0  0  0  0  0
   -0.0827    7.3638    0.1944 O   0  0  0  0  0  0  0  0  0  0  0  0
   -1.9152    5.6330   -0.0798 O   0  0  0  0  0  0  0  0  0  0  0  0
   -1.3826    5.0795   -1.2557 C   0  0  0  0  0  0  0  0  0  0  0  0
   -9.8077   -3.0878   -3.8537 H   0  0  0  0  0  0  0  0  0  0  0  0
   -9.3225   -1.4383   -4.3271 H   0  0  0  0  0  0  0  0  0  0  0  0
   -8.6024   -2.1980   -2.8799 H   0  0  0  0  0  0  0  0  0  0  0  0
   -4.4376    7.5623   -0.3805 H   0  0  0  0  0  0  0  0  0  0  0  0
   -5.9611    6.6310   -0.2864 H   0  0  0  0  0  0  0  0  0  0  0  0
   -4.4577    5.8374   -0.8362 H   0  0  0  0  0  0  0  0  0  0  0  0
   -2.1679    5.0972   -2.0126 H   0  0  0  0  0  0  0  0  0  0  0  0
   -1.0658    4.0466   -1.0836 H   0  0  0  0  0  0  0  0  0  0  0  0
   -0.5341    5.6765   -1.6051 H   0  0  0  0  0  0  0  0  0  0  0  0
   -4.2594   -4.6391    5.3146 H   0  0  0  0  0  0  0  0  0  0  0  0
   -4.1789   -3.3031    4.1315 H   0  0  0  0  0  0  0  0  0  0  0  0
   -2.7102   -3.8078    5.0143 H   0  0  0  0  0  0  0  0  0  0  0  0
   -0.5484   -5.9206   -0.5204 H   0  0  0  0  0  0  0  0  0  0  0  0
    1.1620   -5.4544   -0.3181 H   0  0  0  0  0  0  0  0  0  0  0  0
   -0.0335   -4.2487   -0.8804 H   0  0  0  0  0  0  0  0  0  0  0  0
    8.9233    3.8651    3.2257 H   0  0  0  0  0  0  0  0  0  0  0  0
    7.2393    3.5439    2.7220 H   0  0  0  0  0  0  0  0  0  0  0  0
    8.3318    4.4712    1.6562 H   0  0  0  0  0  0  0  0  0  0  0  0
   -7.0898    0.5407   -3.7849 H   0  0  0  0  0  0  0  0  0  0  0  0
   -5.0582   -3.2211   -3.7339 H   0  0  0  0  0  0  0  0  0  0  0  0
   -6.7841    3.3888   -0.1197 H   0  0  0  0  0  0  0  0  0  0  0  0
   -3.0915   -4.6228    0.0798 H   0  0  0  0  0  0  0  0  0  0  0  0
   -2.9542    3.9013    1.6292 H   0  0  0  0  0  0  0  0  0  0  0  0
   -1.7547   -2.0283    3.1881 H   0  0  0  0  0  0  0  0  0  0  0  0
   -1.1788    3.9169    2.4017 H   0  0  0  0  0  0  0  0  0  0  0  0
   -0.3909   -2.3280    0.7908 H   0  0  0  0  0  0  0  0  0  0  0  0
    3.5841   -2.9245    2.1959 H   0  0  0  0  0  0  0  0  0  0  0  0
    1.8598    5.8225    0.0852 H   0  0  0  0  0  0  0  0  0  0  0  0
    6.0336    3.9826   -0.2229 H   0  0  0  0  0  0  0  0  0  0  0  0
    6.8502   -0.0099    1.0823 H   0  0  0  0  0  0  0  0  0  0  0  0
  1  2  4  0  0  0  0
  2  3  4  0  0  0  0
  3  4  1  0  0  0  0
  4  5  4  0  0  0  0
  1  6  4  0  0  0  0
  5  6  2  0  0  0  0
  3  7  4  0  0  0  0
  7  8  4  0  0  0  0
  8  9  1  0  0  0  0
  4 10  4  0  0  0  0
  9 10  4  0  0  0  0
  7 11  4  0  0  0  0
 11 12  1  0  0  0  0
 12 13  4  0  0  0  0
  8 14  1  0  0  0  0
 13 14  4  0  0  0  0
 14 15  4  0  0  0  0
 15 16  4  0  0  0  0
  9 17  4  0  0  0  0
 16 17  4  0  0  0  0
 11 18  4  0  0  0  0
 18 19  4  0  0  0  0
 19 20  4  0  0  0  0
 12 21  4  0  0  0  0
 20 21  2  0  0  0  0
  2 22  1  0  0  0  0
 18 23  1  0  0  0  0
  6 24  1  0  0  0  0
 20 25  1  0  0  0  0
 16 26  1  0  0  0  0
 27 28  4  0  0  0  0
 28 29  4  0  0  0  0
 29 30  1  0  0  0  0
 30 31  4  0  0  0  0
 27 32  4  0  0  0  0
 31 32  2  0  0  0  0
 29 33  4  0  0  0  0
 33 34  4  0  0  0  0
 34 35  1  0  0  0  0
 30 36  4  0  0  0  0
 35 36  4  0  0  0  0
 33 37  4  0  0  0  0
 37 38  1  0  0  0  0
 38 39  4  0  0  0  0
 34 40  1  0  0  0  0
 39 40  4  0  0  0  0
 40 41  4  0  0  0  0
 41 42  4  0  0  0  0
 35 43  4  0  0  0  0
 42 43  4  0  0  0  0
 37 44  4  0  0  0  0
 44 45  4  0  0  0  0
 45 46  4  0  0  0  0
 38 47  4  0  0  0  0
 46 47  2  0  0  0  0
 28 48  1  0  0  0  0
 44 49  1  0  0  0  0
 32 50  1  0  0  0  0
 46 51  1  0  0  0  0
 42 52  1  0  0  0  0
 22 53  1  0  0  0  0
 23 53  1  0  0  0  0
 48 53  1  0  0  0  0
 49 53  1  0  0  0  0
 26 54  2  0  0  0  0
 26 55  1  0  0  0  0
 55 56  1  0  0  0  0
 25 57  1  0  0  0  0
 57 58  1  0  0  0  0
 25 59  2  0  0  0  0
 50 60  2  0  0  0  0
 50 61  1  0  0  0  0
 61 62  1  0  0  0  0
 52 63  2  0  0  0  0
 52 64  1  0  0  0  0
 64 65  1  0  0  0  0
 51 66  2  0  0  0  0
 51 67  1  0  0  0  0
 67 68  1  0  0  0  0
 24 69  2  0  0  0  0
 24 70  1  0  0  0  0
 70 71  1  0  0  0  0
 65 72  1  0  0  0  0
 65 73  1  0  0  0  0
 65 74  1  0  0  0  0
 68 75  1  0  0  0  0
 68 76  1  0  0  0  0
 68 77  1  0  0  0  0
 71 78  1  0  0  0  0
 71 79  1  0  0  0  0
 71 80  1  0  0  0  0
 62 81  1  0  0  0  0
 62 82  1  0  0  0  0
 62 83  1  0  0  0  0
 58 84  1  0  0  0  0
 58 85  1  0  0  0  0
 58 86  1  0  0  0  0
 56 87  1  0  0  0  0
 56 88  1  0  0  0  0
 56 89  1  0  0  0  0
 41 90  1  0  0  0  0
 43 91  1  0  0  0  0
 47 92  1  0  0  0  0
 31 93  1  0  0  0  0
 45 94  1  0  0  0  0
 27 95  1  0  0  0  0
  1 96  1  0  0  0  0
 19 97  1  0  0  0  0
 21 98  1  0  0  0  0
  5 99  1  0  0  0  0
 17100  1  0  0  0  0
 15101  1  0  0  0  0
M  CHG  1   1  -1
M  END
