 energy: -39.537553415485 gnorm: 0.000600399600 xtb: 6.7.1 (edcfbbe)
          12132412293D

202224  0     0  0            999 V2000
   -0.7514    4.3929    1.7188 C   0  0  0  0  0  0  0  0  0  0  0  0
   -0.0182    3.4408    2.4187 C   0  0  0  0  0  0  0  0  0  0  0  0
    1.4149    3.4662    2.3049 C   0  0  0  0  0  0  0  0  0  0  0  0
    2.0109    4.6265    1.7181 C   0  0  0  0  0  0  0  0  0  0  0  0
    1.2008    5.5603    1.0480 C   0  0  0  0  0  0  0  0  0  0  0  0
   -0.1567    5.4256    1.0280 C   0  0  0  0  0  0  0  0  0  0  0  0
    2.2862    2.4265    2.7700 C   0  0  0  0  0  0  0  0  0  0  0  0
    3.6389    2.7814    2.9038 C   0  0  0  0  0  0  0  0  0  0  0  0
    4.1078    4.0452    2.4373 C   0  0  0  0  0  0  0  0  0  0  0  0
    3.3246    4.9164    1.7871 N   0  0  0  0  0  0  0  0  0  0  0  0
    1.9631    1.0501    3.0329 C   0  0  0  0  0  0  0  0  0  0  0  0
    2.9531    0.2660    3.7088 C   0  0  0  0  0  0  0  0  0  0  0  0
    4.2093    0.6784    3.9707 N   0  0  0  0  0  0  0  0  0  0  0  0
    4.5690    1.8769    3.4932 C   0  0  0  0  0  0  0  0  0  0  0  0
    5.9126    2.2565    3.6050 C   0  0  0  0  0  0  0  0  0  0  0  0
    6.3457    3.4839    3.1647 C   0  0  0  0  0  0  0  0  0  0  0  0
    5.4604    4.3700    2.5999 C   0  0  0  0  0  0  0  0  0  0  0  0
    0.8167    0.3532    2.5028 C   0  0  0  0  0  0  0  0  0  0  0  0
    0.7088   -1.0123    2.7266 C   0  0  0  0  0  0  0  0  0  0  0  0
    1.5871   -1.7048    3.5325 C   0  0  0  0  0  0  0  0  0  0  0  0
    2.6858   -1.0762    4.0295 C   0  0  0  0  0  0  0  0  0  0  0  0
   -0.7151    2.5486    3.2184 O   0  0  0  0  0  0  0  0  0  0  0  0
   -0.1825    0.8965    1.7091 O   0  0  0  0  0  0  0  0  0  0  0  0
   -1.1761    6.6150    0.1248 S   0  0  0  0  0  0  0  0  0  0  0  0
    1.2872   -3.4561    3.8903 S   0  0  0  0  0  0  0  0  0  0  0  0
    8.1001    3.9336    3.3190 S   0  0  0  0  0  0  0  0  0  0  0  0
   -2.0401   -1.7774    3.0767 C   0  0  0  0  0  0  0  0  0  0  0  0
   -2.6021   -0.6288    2.5200 C   0  0  0  0  0  0  0  0  0  0  0  0
   -3.4972   -0.7702    1.3873 C   0  0  0  0  0  0  0  0  0  0  0  0
   -3.5920   -2.0671    0.7890 C   0  0  0  0  0  0  0  0  0  0  0  0
   -2.8358   -3.1352    1.3033 C   0  0  0  0  0  0  0  0  0  0  0  0
   -2.0869   -2.9993    2.4339 C   0  0  0  0  0  0  0  0  0  0  0  0
   -4.4617    0.2059    0.9468 C   0  0  0  0  0  0  0  0  0  0  0  0
   -5.4707   -0.2286    0.0747 C   0  0  0  0  0  0  0  0  0  0  0  0
   -5.3653   -1.4948   -0.5667 C   0  0  0  0  0  0  0  0  0  0  0  0
   -4.4195   -2.3847   -0.2328 N   0  0  0  0  0  0  0  0  0  0  0  0
   -4.6377    1.5430    1.4308 C   0  0  0  0  0  0  0  0  0  0  0  0
   -5.9320    2.1426    1.3609 C   0  0  0  0  0  0  0  0  0  0  0  0
   -6.9096    1.6833    0.5571 N   0  0  0  0  0  0  0  0  0  0  0  0
   -6.6277    0.5805   -0.1569 C   0  0  0  0  0  0  0  0  0  0  0  0
   -7.5580    0.1546   -1.1113 C   0  0  0  0  0  0  0  0  0  0  0  0
   -7.3942   -1.0257   -1.7961 C   0  0  0  0  0  0  0  0  0  0  0  0
   -6.3260   -1.8513   -1.5234 C   0  0  0  0  0  0  0  0  0  0  0  0
   -3.5585    2.3548    1.9089 C   0  0  0  0  0  0  0  0  0  0  0  0
   -3.8678    3.4557    2.7002 C   0  0  0  0  0  0  0  0  0  0  0  0
   -5.1702    3.9127    2.8159 C   0  0  0  0  0  0  0  0  0  0  0  0
   -6.1740    3.3094    2.1078 C   0  0  0  0  0  0  0  0  0  0  0  0
   -2.1712    0.5399    3.1317 O   0  0  0  0  0  0  0  0  0  0  0  0
   -2.2757    2.1108    1.4493 O   0  0  0  0  0  0  0  0  0  0  0  0
   -1.1083   -4.4124    3.0368 S   0  0  0  0  0  0  0  0  0  0  0  0
   -5.5744    5.3466    3.8437 S   0  0  0  0  0  0  0  0  0  0  0  0
   -8.6221   -1.4961   -3.0412 S   0  0  0  0  0  0  0  0  0  0  0  0
   -1.3409    1.5133    2.3921 B   0  0  0  0  0  0  0  0  0  0  0  0
    7.8576    5.4117    3.5434 O   0  0  0  0  0  0  0  0  0  0  0  0
    8.2946    3.4011    4.9087 O   0  0  0  0  0  0  0  0  0  0  0  0
    8.9445    4.3547    5.6850 C   0  0  0  0  0  0  0  0  0  0  0  0
    1.6054   -4.0326    2.3349 O   0  0  0  0  0  0  0  0  0  0  0  0
    2.9425   -3.9050    1.9804 C   0  0  0  0  0  0  0  0  0  0  0  0
    2.5920   -3.7774    4.5998 O   0  0  0  0  0  0  0  0  0  0  0  0
   -1.2737   -4.1641    4.5289 O   0  0  0  0  0  0  0  0  0  0  0  0
   -2.2935   -5.5846    2.7431 O   0  0  0  0  0  0  0  0  0  0  0  0
   -3.2655   -5.5779    3.7262 C   0  0  0  0  0  0  0  0  0  0  0  0
   -9.6015   -0.3636   -2.8242 O   0  0  0  0  0  0  0  0  0  0  0  0
   -9.3473   -2.7230   -2.1493 O   0  0  0  0  0  0  0  0  0  0  0  0
  -10.1009   -2.2330   -1.0928 C   0  0  0  0  0  0  0  0  0  0  0  0
   -6.3697    6.1216    2.8156 O   0  0  0  0  0  0  0  0  0  0  0  0
   -4.0651    6.0779    3.7316 O   0  0  0  0  0  0  0  0  0  0  0  0
   -3.9047    6.7591    2.5327 C   0  0  0  0  0  0  0  0  0  0  0  0
   -0.6591    6.3362   -1.2726 O   0  0  0  0  0  0  0  0  0  0  0  0
   -2.5926    5.7034    0.1501 O   0  0  0  0  0  0  0  0  0  0  0  0
   -2.5990    4.6969   -0.8086 C   0  0  0  0  0  0  0  0  0  0  0  0
  -10.6021   -3.0672   -0.5939 H   0  0  0  0  0  0  0  0  0  0  0  0
  -10.8394   -1.5265   -1.4861 H   0  0  0  0  0  0  0  0  0  0  0  0
   -9.4387   -1.7237   -0.3884 H   0  0  0  0  0  0  0  0  0  0  0  0
   -2.9520    7.2953    2.5462 H   0  0  0  0  0  0  0  0  0  0  0  0
   -4.7323    7.4671    2.4203 H   0  0  0  0  0  0  0  0  0  0  0  0
   -3.9200    6.0429    1.7061 H   0  0  0  0  0  0  0  0  0  0  0  0
   -3.5517    4.1623   -0.7569 H   0  0  0  0  0  0  0  0  0  0  0  0
   -1.7737    4.0030   -0.6248 H   0  0  0  0  0  0  0  0  0  0  0  0
   -2.4758    5.1574   -1.7939 H   0  0  0  0  0  0  0  0  0  0  0  0
   -4.1354   -6.1493    3.3902 H   0  0  0  0  0  0  0  0  0  0  0  0
   -3.5289   -4.5355    3.9131 H   0  0  0  0  0  0  0  0  0  0  0  0
   -2.8440   -6.0152    4.6361 H   0  0  0  0  0  0  0  0  0  0  0  0
    3.5567   -4.3661    2.7605 H   0  0  0  0  0  0  0  0  0  0  0  0
    3.1986   -2.8471    1.8803 H   0  0  0  0  0  0  0  0  0  0  0  0
    3.1059   -4.4154    1.0274 H   0  0  0  0  0  0  0  0  0  0  0  0
    9.0368    3.9741    6.7071 H   0  0  0  0  0  0  0  0  0  0  0  0
    8.3516    5.2753    5.6734 H   0  0  0  0  0  0  0  0  0  0  0  0
    9.9366    4.5466    5.2669 H   0  0  0  0  0  0  0  0  0  0  0  0
   -8.4346    0.7514   -1.2963 H   0  0  0  0  0  0  0  0  0  0  0  0
   -6.2388   -2.8006   -2.0212 H   0  0  0  0  0  0  0  0  0  0  0  0
   -7.1576    3.7458    2.0975 H   0  0  0  0  0  0  0  0  0  0  0  0
   -2.9144   -4.0993    0.8327 H   0  0  0  0  0  0  0  0  0  0  0  0
   -3.0769    4.0089    3.1607 H   0  0  0  0  0  0  0  0  0  0  0  0
   -1.4774   -1.6767    3.9892 H   0  0  0  0  0  0  0  0  0  0  0  0
   -1.8190    4.3088    1.6929 H   0  0  0  0  0  0  0  0  0  0  0  0
   -0.0664   -1.5456    2.2121 H   0  0  0  0  0  0  0  0  0  0  0  0
    3.4048   -1.6420    4.5964 H   0  0  0  0  0  0  0  0  0  0  0  0
    1.6669    6.3895    0.5452 H   0  0  0  0  0  0  0  0  0  0  0  0
    5.8102    5.3400    2.2926 H   0  0  0  0  0  0  0  0  0  0  0  0
    6.6075    1.5802    4.0693 H   0  0  0  0  0  0  0  0  0  0  0  0
    0.3327    3.5528    6.7855 C   0  0  0  0  0  0  0  0  0  0  0  0
    0.8347    2.3120    7.1560 C   0  0  0  0  0  0  0  0  0  0  0  0
    2.1878    1.9754    6.8179 C   0  0  0  0  0  0  0  0  0  0  0  0
    2.9972    3.0157    6.2622 C   0  0  0  0  0  0  0  0  0  0  0  0
    2.4076    4.2268    5.8564 C   0  0  0  0  0  0  0  0  0  0  0  0
    1.1004    4.4951    6.1319 C   0  0  0  0  0  0  0  0  0  0  0  0
    2.8166    0.7238    7.1439 C   0  0  0  0  0  0  0  0  0  0  0  0
    4.2223    0.7640    7.2017 C   0  0  0  0  0  0  0  0  0  0  0  0
    4.9405    1.9024    6.7296 C   0  0  0  0  0  0  0  0  0  0  0  0
    4.3407    2.9718    6.1924 N   0  0  0  0  0  0  0  0  0  0  0  0
    2.2051   -0.5523    7.4265 C   0  0  0  0  0  0  0  0  0  0  0  0
    3.0408   -1.5512    8.0215 C   0  0  0  0  0  0  0  0  0  0  0  0
    4.3678   -1.4296    8.2202 N   0  0  0  0  0  0  0  0  0  0  0  0
    4.9582   -0.3283    7.7433 C   0  0  0  0  0  0  0  0  0  0  0  0
    6.3550   -0.2512    7.8064 C   0  0  0  0  0  0  0  0  0  0  0  0
    7.0310    0.8446    7.3268 C   0  0  0  0  0  0  0  0  0  0  0  0
    6.3390    1.9022    6.7900 C   0  0  0  0  0  0  0  0  0  0  0  0
    0.8719   -0.9602    7.0462 C   0  0  0  0  0  0  0  0  0  0  0  0
    0.4393   -2.2428    7.3698 C   0  0  0  0  0  0  0  0  0  0  0  0
    1.2102   -3.1178    8.1116 C   0  0  0  0  0  0  0  0  0  0  0  0
    2.4973   -2.7881    8.4032 C   0  0  0  0  0  0  0  0  0  0  0  0
    0.0132    1.4983    7.9104 O   0  0  0  0  0  0  0  0  0  0  0  0
   -0.0341   -0.1924    6.3314 O   0  0  0  0  0  0  0  0  0  0  0  0
    0.4097    6.1126    5.7066 S   0  0  0  0  0  0  0  0  0  0  0  0
    0.5766   -4.7041    8.7498 S   0  0  0  0  0  0  0  0  0  0  0  0
    8.8376    0.9014    7.4032 S   0  0  0  0  0  0  0  0  0  0  0  0
   -2.2582   -2.1970    8.4713 C   0  0  0  0  0  0  0  0  0  0  0  0
   -2.5262   -1.1523    7.5905 C   0  0  0  0  0  0  0  0  0  0  0  0
   -3.3413   -1.3961    6.4241 C   0  0  0  0  0  0  0  0  0  0  0  0
   -3.6412   -2.7661    6.1330 C   0  0  0  0  0  0  0  0  0  0  0  0
   -3.2144   -3.7872    7.0023 C   0  0  0  0  0  0  0  0  0  0  0  0
   -2.5700   -3.5041    8.1685 C   0  0  0  0  0  0  0  0  0  0  0  0
   -4.0549   -0.3920    5.6716 C   0  0  0  0  0  0  0  0  0  0  0  0
   -5.0181   -0.8648    4.7615 C   0  0  0  0  0  0  0  0  0  0  0  0
   -5.0686   -2.2470    4.4168 C   0  0  0  0  0  0  0  0  0  0  0  0
   -4.3861   -3.1797    5.0881 N   0  0  0  0  0  0  0  0  0  0  0  0
   -4.1067    1.0297    5.9110 C   0  0  0  0  0  0  0  0  0  0  0  0
   -5.3225    1.7109    5.5739 C   0  0  0  0  0  0  0  0  0  0  0  0
   -6.2164    1.2509    4.6778 N   0  0  0  0  0  0  0  0  0  0  0  0
   -6.0008    0.0145    4.2052 C   0  0  0  0  0  0  0  0  0  0  0  0
   -6.8650   -0.4781    3.2176 C   0  0  0  0  0  0  0  0  0  0  0  0
   -6.8105   -1.7900    2.8122 C   0  0  0  0  0  0  0  0  0  0  0  0
   -5.9412   -2.6702    3.4069 C   0  0  0  0  0  0  0  0  0  0  0  0
   -3.0456    1.8462    6.4593 C   0  0  0  0  0  0  0  0  0  0  0  0
   -3.3901    3.0399    7.0952 C   0  0  0  0  0  0  0  0  0  0  0  0
   -4.6739    3.5524    6.9966 C   0  0  0  0  0  0  0  0  0  0  0  0
   -5.5921    2.9469    6.1852 C   0  0  0  0  0  0  0  0  0  0  0  0
   -1.9037    0.0257    7.9417 O   0  0  0  0  0  0  0  0  0  0  0  0
   -1.7097    1.5675    6.2125 O   0  0  0  0  0  0  0  0  0  0  0  0
   -2.0894   -4.8475    9.2964 S   0  0  0  0  0  0  0  0  0  0  0  0
   -5.2008    5.0348    7.8887 S   0  0  0  0  0  0  0  0  0  0  0  0
   -7.9067   -2.4086    1.5193 S   0  0  0  0  0  0  0  0  0  0  0  0
   -0.9187    0.7137    7.0949 B   0  0  0  0  0  0  0  0  0  0  0  0
    9.0000    2.3180    7.9122 O   0  0  0  0  0  0  0  0  0  0  0  0
    8.9831    0.0143    8.8240 O   0  0  0  0  0  0  0  0  0  0  0  0
    8.6546    0.7626    9.9466 C   0  0  0  0  0  0  0  0  0  0  0  0
   -0.1186   -5.2451    7.3167 O   0  0  0  0  0  0  0  0  0  0  0  0
    0.8259   -5.5520    6.3490 C   0  0  0  0  0  0  0  0  0  0  0  0
    1.8800   -5.4818    8.7490 O   0  0  0  0  0  0  0  0  0  0  0  0
   -1.5508   -3.9892   10.4287 O   0  0  0  0  0  0  0  0  0  0  0  0
   -3.6479   -5.1851    9.8564 O   0  0  0  0  0  0  0  0  0  0  0  0
   -4.1441   -4.1924   10.6918 C   0  0  0  0  0  0  0  0  0  0  0  0
   -8.9090   -1.2747    1.4967 O   0  0  0  0  0  0  0  0  0  0  0  0
   -8.7253   -3.5384    2.4554 O   0  0  0  0  0  0  0  0  0  0  0  0
   -9.4842   -2.9430    3.4546 C   0  0  0  0  0  0  0  0  0  0  0  0
   -5.9954    5.6493    6.7506 O   0  0  0  0  0  0  0  0  0  0  0  0
   -3.7298    5.8480    7.7812 O   0  0  0  0  0  0  0  0  0  0  0  0
   -3.6948    6.7417    6.7220 C   0  0  0  0  0  0  0  0  0  0  0  0
    0.5429    6.0473    4.1974 O   0  0  0  0  0  0  0  0  0  0  0  0
   -1.1898    5.6551    5.9193 O   0  0  0  0  0  0  0  0  0  0  0  0
   -1.6519    4.9037    4.8538 C   0  0  0  0  0  0  0  0  0  0  0  0
  -10.0859   -3.7121    3.9468 H   0  0  0  0  0  0  0  0  0  0  0  0
  -10.1388   -2.1930    2.9988 H   0  0  0  0  0  0  0  0  0  0  0  0
   -8.8260   -2.4666    4.1861 H   0  0  0  0  0  0  0  0  0  0  0  0
   -2.6916    7.1724    6.6539 H   0  0  0  0  0  0  0  0  0  0  0  0
   -4.4421    7.5231    6.8890 H   0  0  0  0  0  0  0  0  0  0  0  0
   -3.9325    6.1996    5.8038 H   0  0  0  0  0  0  0  0  0  0  0  0
   -2.6469    4.5230    5.0946 H   0  0  0  0  0  0  0  0  0  0  0  0
   -0.9680    4.0713    4.6603 H   0  0  0  0  0  0  0  0  0  0  0  0
   -1.6902    5.5595    3.9788 H   0  0  0  0  0  0  0  0  0  0  0  0
   -5.0948   -4.5283   11.1144 H   0  0  0  0  0  0  0  0  0  0  0  0
   -4.2964   -3.2730   10.1208 H   0  0  0  0  0  0  0  0  0  0  0  0
   -3.4192   -4.0177   11.4934 H   0  0  0  0  0  0  0  0  0  0  0  0
    1.4854   -6.3348    6.7378 H   0  0  0  0  0  0  0  0  0  0  0  0
    1.4109   -4.6576    6.1177 H   0  0  0  0  0  0  0  0  0  0  0  0
    0.3039   -5.8969    5.4516 H   0  0  0  0  0  0  0  0  0  0  0  0
    8.8156    0.1531   10.8402 H   0  0  0  0  0  0  0  0  0  0  0  0
    7.6078    1.0739    9.8904 H   0  0  0  0  0  0  0  0  0  0  0  0
    9.2990    1.6473    9.9742 H   0  0  0  0  0  0  0  0  0  0  0  0
   -7.6036    0.1739    2.7846 H   0  0  0  0  0  0  0  0  0  0  0  0
   -5.9647   -3.7107    3.1350 H   0  0  0  0  0  0  0  0  0  0  0  0
   -6.5420    3.4218    6.0116 H   0  0  0  0  0  0  0  0  0  0  0  0
   -3.4518   -4.8076    6.7600 H   0  0  0  0  0  0  0  0  0  0  0  0
   -2.6396    3.6112    7.6092 H   0  0  0  0  0  0  0  0  0  0  0  0
   -1.7027   -1.9857    9.3685 H   0  0  0  0  0  0  0  0  0  0  0  0
   -0.6832    3.7879    7.0366 H   0  0  0  0  0  0  0  0  0  0  0  0
   -0.5181   -2.5637    7.0043 H   0  0  0  0  0  0  0  0  0  0  0  0
    3.1305   -3.5151    8.8834 H   0  0  0  0  0  0  0  0  0  0  0  0
    3.0184    4.9687    5.3722 H   0  0  0  0  0  0  0  0  0  0  0  0
    6.8775    2.7430    6.3907 H   0  0  0  0  0  0  0  0  0  0  0  0
    6.9029   -1.0629    8.2514 H   0  0  0  0  0  0  0  0  0  0  0  0
  1  2  1  0  0  0  0
  1  6  1  0  0  0  0
  1 96  1  0  0  0  0
  2  3  2  0  0  0  0
  2 22  1  0  0  0  0
  3  7  1  0  0  0  0
  4  3  1  0  0  0  0
  4  5  1  0  0  0  0
  4 10  1  0  0  0  0
  5  6  2  0  0  0  0
  5 99  1  0  0  0  0
  6 24  1  0  0  0  0
  7  8  1  0  0  0  0
  7 11  2  0  0  0  0
  8  9  1  0  0  0  0
  8 14  1  0  0  0  0
  9 10  2  0  0  0  0
  9 17  1  0  0  0  0
 11 12  1  0  0  0  0
 11 18  1  0  0  0  0
 12 13  2  0  0  0  0
 12 21  1  0  0  0  0
 13 14  1  0  0  0  0
 14 15  2  0  0  0  0
 15 16  1  0  0  0  0
 15101  1  0  0  0  0
 16 17  2  0  0  0  0
 16 26  1  0  0  0  0
 17100  1  0  0  0  0
 18 19  2  0  0  0  0
 18 23  1  0  0  0  0
 19 20  1  0  0  0  0
 19 97  1  0  0  0  0
 20 21  2  0  0  0  0
 20 25  1  0  0  0  0
 21 98  1  0  0  0  0
 23 53  1  0  0  0  0
 24 69  2  0  0  0  0
 24 70  1  0  0  0  0
 25 57  1  0  0  0  0
 25 59  2  0  0  0  0
 26 54  2  0  0  0  0
 26 55  1  0  0  0  0
 27 28  1  0  0  0  0
 27 32  1  0  0  0  0
 27 95  1  0  0  0  0
 28 29  2  0  0  0  0
 28 48  1  0  0  0  0
 29 33  1  0  0  0  0
 30 29  1  0  0  0  0
 30 31  1  0  0  0  0
 30 36  1  0  0  0  0
 31 32  2  0  0  0  0
 31 93  1  0  0  0  0
 32 50  1  0  0  0  0
 33 34  2  0  0  0  0
 34 35  1  0  0  0  0
 34 40  1  0  0  0  0
 35 36  2  0  0  0  0
 35 43  1  0  0  0  0
 37 33  1  0  0  0  0
 37 38  1  0  0  0  0
 37 44  1  0  0  0  0
 38 39  2  0  0  0  0
 38 47  1  0  0  0  0
 39 40  1  0  0  0  0
 40 41  2  0  0  0  0
 41 42  1  0  0  0  0
 41 90  1  0  0  0  0
 42 43  2  0  0  0  0
 42 52  1  0  0  0  0
 43 91  1  0  0  0  0
 44 45  2  0  0  0  0
 44 49  1  0  0  0  0
 45 46  1  0  0  0  0
 45 94  1  0  0  0  0
 46 47  2  0  0  0  0
 46 51  1  0  0  0  0
 47 92  1  0  0  0  0
 48 53  1  0  0  0  0
 49 53  1  0  0  0  0
 50 60  2  0  0  0  0
 50 61  1  0  0  0  0
 51 66  2  0  0  0  0
 51 67  1  0  0  0  0
 52 63  2  0  0  0  0
 52 64  1  0  0  0  0
 53 22  1  0  0  0  0
 55 56  1  0  0  0  0
 56 87  1  0  0  0  0
 56 88  1  0  0  0  0
 56 89  1  0  0  0  0
 57 58  1  0  0  0  0
 58 84  1  0  0  0  0
 58 85  1  0  0  0  0
 58 86  1  0  0  0  0
 61 62  1  0  0  0  0
 62 81  1  0  0  0  0
 62 82  1  0  0  0  0
 62 83  1  0  0  0  0
 64 65  1  0  0  0  0
 65 72  1  0  0  0  0
 65 73  1  0  0  0  0
 65 74  1  0  0  0  0
 67 68  1  0  0  0  0
 68 75  1  0  0  0  0
 68 76  1  0  0  0  0
 68 77  1  0  0  0  0
 70 71  1  0  0  0  0
 71 78  1  0  0  0  0
 71 79  1  0  0  0  0
 71 80  1  0  0  0  0
102103  1  0  0  0  0
102107  1  0  0  0  0
102197  1  0  0  0  0
103104  2  0  0  0  0
103123  1  0  0  0  0
104108  1  0  0  0  0
105104  1  0  0  0  0
105106  1  0  0  0  0
105111  1  0  0  0  0
106107  2  0  0  0  0
106200  1  0  0  0  0
107125  1  0  0  0  0
108109  1  0  0  0  0
108112  2  0  0  0  0
109110  1  0  0  0  0
109115  1  0  0  0  0
110111  2  0  0  0  0
110118  1  0  0  0  0
112113  1  0  0  0  0
112119  1  0  0  0  0
113114  2  0  0  0  0
113122  1  0  0  0  0
114115  1  0  0  0  0
115116  2  0  0  0  0
116117  1  0  0  0  0
116202  1  0  0  0  0
117118  2  0  0  0  0
117127  1  0  0  0  0
118201  1  0  0  0  0
119120  2  0  0  0  0
119124  1  0  0  0  0
120121  1  0  0  0  0
120198  1  0  0  0  0
121122  2  0  0  0  0
121126  1  0  0  0  0
122199  1  0  0  0  0
124154  1  0  0  0  0
125170  2  0  0  0  0
125171  1  0  0  0  0
126158  1  0  0  0  0
126160  2  0  0  0  0
127155  2  0  0  0  0
127156  1  0  0  0  0
128129  1  0  0  0  0
128133  1  0  0  0  0
128196  1  0  0  0  0
129130  2  0  0  0  0
129149  1  0  0  0  0
130134  1  0  0  0  0
131130  1  0  0  0  0
131132  1  0  0  0  0
131137  1  0  0  0  0
132133  2  0  0  0  0
132194  1  0  0  0  0
133151  1  0  0  0  0
134135  2  0  0  0  0
135136  1  0  0  0  0
135141  1  0  0  0  0
136137  2  0  0  0  0
136144  1  0  0  0  0
138134  1  0  0  0  0
138139  1  0  0  0  0
138145  1  0  0  0  0
139140  2  0  0  0  0
139148  1  0  0  0  0
140141  1  0  0  0  0
141142  2  0  0  0  0
142143  1  0  0  0  0
142191  1  0  0  0  0
143144  2  0  0  0  0
143153  1  0  0  0  0
144192  1  0  0  0  0
145146  2  0  0  0  0
145150  1  0  0  0  0
146147  1  0  0  0  0
146195  1  0  0  0  0
147148  2  0  0  0  0
147152  1  0  0  0  0
148193  1  0  0  0  0
149154  1  0  0  0  0
150154  1  0  0  0  0
151161  2  0  0  0  0
151162  1  0  0  0  0
152167  2  0  0  0  0
152168  1  0  0  0  0
153164  2  0  0  0  0
153165  1  0  0  0  0
154123  1  0  0  0  0
156157  1  0  0  0  0
157188  1  0  0  0  0
157189  1  0  0  0  0
157190  1  0  0  0  0
158159  1  0  0  0  0
159185  1  0  0  0  0
159186  1  0  0  0  0
159187  1  0  0  0  0
162163  1  0  0  0  0
163182  1  0  0  0  0
163183  1  0  0  0  0
163184  1  0  0  0  0
165166  1  0  0  0  0
166173  1  0  0  0  0
166174  1  0  0  0  0
166175  1  0  0  0  0
168169  1  0  0  0  0
169176  1  0  0  0  0
169177  1  0  0  0  0
169178  1  0  0  0  0
171172  1  0  0  0  0
172179  1  0  0  0  0
172180  1  0  0  0  0
172181  1  0  0  0  0
M  CHG  1   8   1
M  CHG  1  53  -1
M  CHG  1 109   1
M  CHG  1 154  -1
M  END
