 energy: -206.677598496127 gnorm: 0.000174068430 xtb: 6.6.1 (8d0f1dd)
          10312414213D

101112  0     0  0            999 V2000
   -0.3214    3.7775    1.9014 C   0  0  0  0  0  0  0  0  0  0  0  0
    0.2905    2.5334    1.7674 C   0  0  0  0  0  0  0  0  0  0  0  0
    1.5917    2.4474    1.2173 C   0  0  0  0  0  0  0  0  0  0  0  0
    2.2255    3.6927    0.8433 C   0  0  0  0  0  0  0  0  0  0  0  0
    1.4834    4.9038    0.8181 C   0  0  0  0  0  0  0  0  0  0  0  0
    0.2329    4.9338    1.3594 C   0  0  0  0  0  0  0  0  0  0  0  0
    2.3846    1.2538    1.1561 C   0  0  0  0  0  0  0  0  0  0  0  0
    3.7806    1.4677    1.0760 C   0  0  0  0  0  0  0  0  0  0  0  0
    4.3039    2.7564    0.7620 C   0  0  0  0  0  0  0  0  0  0  0  0
    3.5165    3.8089    0.5830 N   0  0  0  0  0  0  0  0  0  0  0  0
    1.9636   -0.1253    1.1861 C   0  0  0  0  0  0  0  0  0  0  0  0
    2.9805   -1.0853    1.5597 C   0  0  0  0  0  0  0  0  0  0  0  0
    4.2685   -0.8023    1.6682 N   0  0  0  0  0  0  0  0  0  0  0  0
    4.6954    0.4054    1.3217 C   0  0  0  0  0  0  0  0  0  0  0  0
    6.0878    0.6470    1.2739 C   0  0  0  0  0  0  0  0  0  0  0  0
    6.5588    1.8708    0.8492 C   0  0  0  0  0  0  0  0  0  0  0  0
    5.6953    2.9078    0.5672 C   0  0  0  0  0  0  0  0  0  0  0  0
    0.7325   -0.6632    0.7210 C   0  0  0  0  0  0  0  0  0  0  0  0
    0.5810   -2.0562    0.6538 C   0  0  0  0  0  0  0  0  0  0  0  0
    1.5115   -2.9434    1.1731 C   0  0  0  0  0  0  0  0  0  0  0  0
    2.6876   -2.4708    1.6742 C   0  0  0  0  0  0  0  0  0  0  0  0
   -0.3955    1.4596    2.1593 O   0  0  0  0  0  0  0  0  0  0  0  0
   -0.2804    0.0544    0.2377 O   0  0  0  0  0  0  0  0  0  0  0  0
   -0.8747    6.4027    1.0965 S   0  0  0  0  0  0  0  0  0  0  0  0
    1.3484   -4.7854    1.1211 S   0  0  0  0  0  0  0  0  0  0  0  0
    8.4035    2.1781    0.7130 S   0  0  0  0  0  0  0  0  0  0  0  0
   -2.0730   -2.2814    1.9314 C   0  0  0  0  0  0  0  0  0  0  0  0
   -2.5752   -1.1427    1.3044 C   0  0  0  0  0  0  0  0  0  0  0  0
   -3.4175   -1.2658    0.1656 C   0  0  0  0  0  0  0  0  0  0  0  0
   -3.6123   -2.6070   -0.3398 C   0  0  0  0  0  0  0  0  0  0  0  0
   -3.0320   -3.7320    0.3027 C   0  0  0  0  0  0  0  0  0  0  0  0
   -2.3034   -3.5601    1.4397 C   0  0  0  0  0  0  0  0  0  0  0  0
   -4.1804   -0.2115   -0.4454 C   0  0  0  0  0  0  0  0  0  0  0  0
   -5.1328   -0.6272   -1.4067 C   0  0  0  0  0  0  0  0  0  0  0  0
   -5.1266   -1.9570   -1.9195 C   0  0  0  0  0  0  0  0  0  0  0  0
   -4.3648   -2.9016   -1.3914 N   0  0  0  0  0  0  0  0  0  0  0  0
   -4.2152    1.1988   -0.1220 C   0  0  0  0  0  0  0  0  0  0  0  0
   -5.4879    1.8543   -0.3717 C   0  0  0  0  0  0  0  0  0  0  0  0
   -6.3893    1.3976   -1.2203 N   0  0  0  0  0  0  0  0  0  0  0  0
   -6.1619    0.2514   -1.8527 C   0  0  0  0  0  0  0  0  0  0  0  0
   -7.0436   -0.1520   -2.8745 C   0  0  0  0  0  0  0  0  0  0  0  0
   -6.8979   -1.3890   -3.4729 C   0  0  0  0  0  0  0  0  0  0  0  0
   -5.9621   -2.2890   -3.0153 C   0  0  0  0  0  0  0  0  0  0  0  0
   -3.1605    2.0583    0.2910 C   0  0  0  0  0  0  0  0  0  0  0  0
   -3.4814    3.3515    0.7240 C   0  0  0  0  0  0  0  0  0  0  0  0
   -4.7760    3.8550    0.7368 C   0  0  0  0  0  0  0  0  0  0  0  0
   -5.7838    3.1332    0.1730 C   0  0  0  0  0  0  0  0  0  0  0  0
   -2.2014    0.0275    1.8147 O   0  0  0  0  0  0  0  0  0  0  0  0
   -1.8652    1.7649    0.2249 O   0  0  0  0  0  0  0  0  0  0  0  0
   -1.4773   -4.9879    2.2490 S   0  0  0  0  0  0  0  0  0  0  0  0
   -5.1292    5.4797    1.5773 S   0  0  0  0  0  0  0  0  0  0  0  0
   -8.0536   -1.8640   -4.8708 S   0  0  0  0  0  0  0  0  0  0  0  0
   -1.1956    0.8180    1.1093 B   0  0  0  0  0  0  0  0  0  0  0  0
    8.4590    3.3907   -0.0635 O   0  0  0  0  0  0  0  0  0  0  0  0
    8.5901    2.5713    2.3106 O   0  0  0  0  0  0  0  0  0  0  0  0
    8.3296    3.8990    2.6991 C   0  0  0  0  0  0  0  0  0  0  0  0
   -0.1511   -4.8600    0.3245 O   0  0  0  0  0  0  0  0  0  0  0  0
   -0.1617   -5.3009   -1.0153 C   0  0  0  0  0  0  0  0  0  0  0  0
    2.3290   -5.1108    0.1048 O   0  0  0  0  0  0  0  0  0  0  0  0
   -0.2754   -4.3670    2.8104 O   0  0  0  0  0  0  0  0  0  0  0  0
   -2.5394   -5.1560    3.4914 O   0  0  0  0  0  0  0  0  0  0  0  0
   -2.4775   -4.2908    4.6031 C   0  0  0  0  0  0  0  0  0  0  0  0
   -8.9528   -0.7380   -4.9206 O   0  0  0  0  0  0  0  0  0  0  0  0
   -8.7977   -3.0969   -4.0551 O   0  0  0  0  0  0  0  0  0  0  0  0
   -9.8844   -2.7786   -3.2173 C   0  0  0  0  0  0  0  0  0  0  0  0
   -6.4001    5.8672    1.0161 O   0  0  0  0  0  0  0  0  0  0  0  0
   -3.9302    6.3749    0.8600 O   0  0  0  0  0  0  0  0  0  0  0  0
   -4.2233    6.9697   -0.3843 C   0  0  0  0  0  0  0  0  0  0  0  0
    0.0306    7.4821    0.7951 O   0  0  0  0  0  0  0  0  0  0  0  0
   -1.4159    5.7704   -0.3568 O   0  0  0  0  0  0  0  0  0  0  0  0
   -0.6151    5.9848   -1.4902 C   0  0  0  0  0  0  0  0  0  0  0  0
  -10.6190   -3.5769   -3.3084 H   0  0  0  0  0  0  0  0  0  0  0  0
  -10.3343   -1.8320   -3.5327 H   0  0  0  0  0  0  0  0  0  0  0  0
   -9.5495   -2.6970   -2.1797 H   0  0  0  0  0  0  0  0  0  0  0  0
   -3.7038    7.9251   -0.4242 H   0  0  0  0  0  0  0  0  0  0  0  0
   -5.3015    7.1340   -0.4741 H   0  0  0  0  0  0  0  0  0  0  0  0
   -3.8835    6.3231   -1.1963 H   0  0  0  0  0  0  0  0  0  0  0  0
   -1.2737    6.1030   -2.3496 H   0  0  0  0  0  0  0  0  0  0  0  0
    0.0527    5.1327   -1.6509 H   0  0  0  0  0  0  0  0  0  0  0  0
   -0.0212    6.8954   -1.3615 H   0  0  0  0  0  0  0  0  0  0  0  0
   -2.8098   -4.8543    5.4739 H   0  0  0  0  0  0  0  0  0  0  0  0
   -3.1307   -3.4269    4.4512 H   0  0  0  0  0  0  0  0  0  0  0  0
   -1.4480   -3.9560    4.7540 H   0  0  0  0  0  0  0  0  0  0  0  0
   -0.7059   -6.2436   -1.0840 H   0  0  0  0  0  0  0  0  0  0  0  0
    0.8694   -5.4491   -1.3520 H   0  0  0  0  0  0  0  0  0  0  0  0
   -0.6446   -4.5447   -1.6371 H   0  0  0  0  0  0  0  0  0  0  0  0
    9.0102    4.1443    3.5122 H   0  0  0  0  0  0  0  0  0  0  0  0
    7.2939    3.9986    3.0376 H   0  0  0  0  0  0  0  0  0  0  0  0
    8.5056    4.5769    1.8580 H   0  0  0  0  0  0  0  0  0  0  0  0
   -7.8425    0.5089   -3.1793 H   0  0  0  0  0  0  0  0  0  0  0  0
   -5.8575   -3.2683   -3.4564 H   0  0  0  0  0  0  0  0  0  0  0  0
   -6.7745    3.5384    0.0411 H   0  0  0  0  0  0  0  0  0  0  0  0
   -3.2190   -4.7030   -0.1242 H   0  0  0  0  0  0  0  0  0  0  0  0
   -2.6716    3.9919    1.0286 H   0  0  0  0  0  0  0  0  0  0  0  0
   -1.4255   -2.1398    2.7837 H   0  0  0  0  0  0  0  0  0  0  0  0
   -1.2711    3.8048    2.4113 H   0  0  0  0  0  0  0  0  0  0  0  0
   -0.3139   -2.4290    0.1842 H   0  0  0  0  0  0  0  0  0  0  0  0
    3.4708   -3.1237    2.0226 H   0  0  0  0  0  0  0  0  0  0  0  0
    1.9603    5.7960    0.4434 H   0  0  0  0  0  0  0  0  0  0  0  0
    6.0731    3.8465    0.1872 H   0  0  0  0  0  0  0  0  0  0  0  0
    6.7540   -0.1486    1.5691 H   0  0  0  0  0  0  0  0  0  0  0  0
  1  2  2  0  0  0  0
  1 96  1  0  0  0  0
  2  3  1  0  0  0  0
  3  4  2  0  0  0  0
  3  7  1  0  0  0  0
  4  5  1  0  0  0  0
  5  6  2  0  0  0  0
  5 99  1  0  0  0  0
  6  1  1  0  0  0  0
  6 24  1  0  0  0  0
  7  8  1  0  0  0  0
  7 11  2  0  0  0  0
  8  9  1  0  0  0  0
  9 10  2  0  0  0  0
 10  4  1  0  0  0  0
 11 12  1  0  0  0  0
 11 18  1  0  0  0  0
 12 13  2  0  0  0  0
 13 14  1  0  0  0  0
 14  8  1  0  0  0  0
 14 15  2  0  0  0  0
 15 16  1  0  0  0  0
 15101  1  0  0  0  0
 16 17  2  0  0  0  0
 16 26  1  0  0  0  0
 17  9  1  0  0  0  0
 17100  1  0  0  0  0
 18 19  2  0  0  0  0
 19 20  1  0  0  0  0
 19 97  1  0  0  0  0
 20 21  2  0  0  0  0
 20 25  1  0  0  0  0
 21 12  1  0  0  0  0
 21 98  1  0  0  0  0
 22  2  1  0  0  0  0
 23 18  1  0  0  0  0
 24 69  2  0  0  0  0
 24 70  1  0  0  0  0
 25 57  1  0  0  0  0
 25 59  2  0  0  0  0
 26 54  2  0  0  0  0
 26 55  1  0  0  0  0
 27 28  2  0  0  0  0
 27 95  1  0  0  0  0
 28 29  1  0  0  0  0
 28 48  1  0  0  0  0
 29 30  2  0  0  0  0
 29 33  1  0  0  0  0
 30 31  1  0  0  0  0
 31 32  2  0  0  0  0
 31 93  1  0  0  0  0
 32 27  1  0  0  0  0
 32 50  1  0  0  0  0
 33 37  2  0  0  0  0
 34 33  1  0  0  0  0
 34 35  1  0  0  0  0
 35 36  2  0  0  0  0
 36 30  1  0  0  0  0
 37 38  1  0  0  0  0
 37 44  1  0  0  0  0
 38 39  2  0  0  0  0
 39 40  1  0  0  0  0
 40 34  1  0  0  0  0
 40 41  2  0  0  0  0
 41 42  1  0  0  0  0
 41 90  1  0  0  0  0
 42 43  2  0  0  0  0
 42 52  1  0  0  0  0
 43 35  1  0  0  0  0
 43 91  1  0  0  0  0
 44 45  2  0  0  0  0
 44 49  1  0  0  0  0
 45 46  1  0  0  0  0
 45 94  1  0  0  0  0
 46 47  2  0  0  0  0
 46 51  1  0  0  0  0
 47 38  1  0  0  0  0
 47 92  1  0  0  0  0
 50 60  2  0  0  0  0
 50 61  1  0  0  0  0
 51 66  2  0  0  0  0
 51 67  1  0  0  0  0
 52 63  2  0  0  0  0
 52 64  1  0  0  0  0
 53 49  1  0  0  0  0
 53 22  1  0  0  0  0
 53 48  1  0  0  0  0
 53 23  1  0  0  0  0
 55 56  1  0  0  0  0
 56 87  1  0  0  0  0
 56 88  1  0  0  0  0
 56 89  1  0  0  0  0
 57 58  1  0  0  0  0
 58 84  1  0  0  0  0
 58 85  1  0  0  0  0
 58 86  1  0  0  0  0
 61 62  1  0  0  0  0
 62 81  1  0  0  0  0
 62 82  1  0  0  0  0
 62 83  1  0  0  0  0
 64 65  1  0  0  0  0
 65 72  1  0  0  0  0
 65 73  1  0  0  0  0
 65 74  1  0  0  0  0
 67 68  1  0  0  0  0
 68 75  1  0  0  0  0
 68 76  1  0  0  0  0
 68 77  1  0  0  0  0
 70 71  1  0  0  0  0
 71 78  1  0  0  0  0
 71 79  1  0  0  0  0
 71 80  1  0  0  0  0
M  CHG  1   1   1
M  END
