 energy: -414.348931162410 gnorm: 0.000667625175 xtb: 6.7.1 (edcfbbe)
          02242515113D

202224  0     0  0            999 V2000
   -1.1876    4.2925    1.7419 C   0  0  0  0  0  0  0  0  0  0  0  0
   -0.4899    3.3336    2.4642 C   0  0  0  0  0  0  0  0  0  0  0  0
    0.9215    3.4254    2.5130 C   0  0  0  0  0  0  0  0  0  0  0  0
    1.5259    4.6332    2.0263 C   0  0  0  0  0  0  0  0  0  0  0  0
    0.7967    5.5256    1.2245 C   0  0  0  0  0  0  0  0  0  0  0  0
   -0.5457    5.3201    1.0673 C   0  0  0  0  0  0  0  0  0  0  0  0
    1.8088    2.4466    3.0812 C   0  0  0  0  0  0  0  0  0  0  0  0
    3.0333    2.9804    3.5421 C   0  0  0  0  0  0  0  0  0  0  0  0
    3.4301    4.3146    3.2244 C   0  0  0  0  0  0  0  0  0  0  0  0
    2.7628    5.0364    2.3753 N   0  0  0  0  0  0  0  0  0  0  0  0
    1.6271    1.0208    3.1757 C   0  0  0  0  0  0  0  0  0  0  0  0
    2.6542    0.3159    3.8854 C   0  0  0  0  0  0  0  0  0  0  0  0
    3.7121    0.9121    4.4750 N   0  0  0  0  0  0  0  0  0  0  0  0
    3.9123    2.1760    4.2966 C   0  0  0  0  0  0  0  0  0  0  0  0
    5.0056    2.7910    5.1457 C   0  0  0  0  0  0  0  0  0  0  0  0
    5.2745    4.2151    4.8073 C   0  0  0  0  0  0  0  0  0  0  0  0
    4.6032    4.8774    3.8633 C   0  0  0  0  0  0  0  0  0  0  0  0
    0.6305    0.2096    2.5419 C   0  0  0  0  0  0  0  0  0  0  0  0
    0.7217   -1.1784    2.6519 C   0  0  0  0  0  0  0  0  0  0  0  0
    1.6656   -1.8105    3.4450 C   0  0  0  0  0  0  0  0  0  0  0  0
    2.6291   -1.0701    4.0636 C   0  0  0  0  0  0  0  0  0  0  0  0
   -1.1602    2.3806    3.1577 O   0  0  0  0  0  0  0  0  0  0  0  0
   -0.3572    0.6674    1.7459 O   0  0  0  0  0  0  0  0  0  0  0  0
   -1.5369    6.4764    0.0361 S   0  0  0  0  0  0  0  0  0  0  0  0
    1.6383   -3.5959    3.8687 S   0  0  0  0  0  0  0  0  0  0  0  0
    6.5911    5.0377    5.7772 S   0  0  0  0  0  0  0  0  0  0  0  0
   -2.1881   -1.9715    2.8436 C   0  0  0  0  0  0  0  0  0  0  0  0
   -2.8072   -0.8304    2.3418 C   0  0  0  0  0  0  0  0  0  0  0  0
   -3.7438   -0.9865    1.2623 C   0  0  0  0  0  0  0  0  0  0  0  0
   -3.8987   -2.3250    0.7267 C   0  0  0  0  0  0  0  0  0  0  0  0
   -3.1064   -3.4047    1.1828 C   0  0  0  0  0  0  0  0  0  0  0  0
   -2.2933   -3.2274    2.2592 C   0  0  0  0  0  0  0  0  0  0  0  0
   -4.6627   -0.0220    0.7239 C   0  0  0  0  0  0  0  0  0  0  0  0
   -5.6917   -0.4629   -0.1345 C   0  0  0  0  0  0  0  0  0  0  0  0
   -5.6901   -1.7978   -0.6192 C   0  0  0  0  0  0  0  0  0  0  0  0
   -4.7926   -2.6751   -0.1953 N   0  0  0  0  0  0  0  0  0  0  0  0
   -4.7467    1.3643    1.0647 C   0  0  0  0  0  0  0  0  0  0  0  0
   -6.0264    2.0150    0.9386 C   0  0  0  0  0  0  0  0  0  0  0  0
   -6.9707    1.5626    0.1360 N   0  0  0  0  0  0  0  0  0  0  0  0
   -6.7698    0.4028   -0.4941 C   0  0  0  0  0  0  0  0  0  0  0  0
   -7.7254   -0.0414   -1.4215 C   0  0  0  0  0  0  0  0  0  0  0  0
   -7.6431   -1.3156   -1.9537 C   0  0  0  0  0  0  0  0  0  0  0  0
   -6.6617   -2.1966   -1.5685 C   0  0  0  0  0  0  0  0  0  0  0  0
   -3.6492    2.0984    1.5481 C   0  0  0  0  0  0  0  0  0  0  0  0
   -3.9872    3.1111    2.4674 C   0  0  0  0  0  0  0  0  0  0  0  0
   -5.2364    3.7001    2.4168 C   0  0  0  0  0  0  0  0  0  0  0  0
   -6.2332    3.2497    1.6090 C   0  0  0  0  0  0  0  0  0  0  0  0
   -2.4818    0.3065    2.9908 O   0  0  0  0  0  0  0  0  0  0  0  0
   -2.4250    1.7519    1.1885 O   0  0  0  0  0  0  0  0  0  0  0  0
   -1.1729   -4.5669    2.8263 S   0  0  0  0  0  0  0  0  0  0  0  0
   -5.6077    5.0597    3.6435 S   0  0  0  0  0  0  0  0  0  0  0  0
   -8.9286   -1.8908   -3.1555 S   0  0  0  0  0  0  0  0  0  0  0  0
   -1.5648    1.2696    2.3084 B   0  0  0  0  0  0  0  0  0  0  0  0
    6.2192    4.8240    7.1633 O   0  0  0  0  0  0  0  0  0  0  0  0
    7.7000    3.8503    5.3711 O   0  0  0  0  0  0  0  0  0  0  0  0
    8.9081    3.8747    6.1057 C   0  0  0  0  0  0  0  0  0  0  0  0
    1.3090   -4.1232    2.3089 O   0  0  0  0  0  0  0  0  0  0  0  0
    2.3785   -4.0450    1.3925 C   0  0  0  0  0  0  0  0  0  0  0  0
    3.0443   -3.8639    4.1224 O   0  0  0  0  0  0  0  0  0  0  0  0
   -0.8405   -4.0864    4.1737 O   0  0  0  0  0  0  0  0  0  0  0  0
   -2.2800   -5.7781    2.9704 O   0  0  0  0  0  0  0  0  0  0  0  0
   -3.0668   -5.8909    4.1410 C   0  0  0  0  0  0  0  0  0  0  0  0
   -9.6909   -0.6952   -3.4433 O   0  0  0  0  0  0  0  0  0  0  0  0
   -9.7835   -2.8094   -2.0716 O   0  0  0  0  0  0  0  0  0  0  0  0
  -10.6201   -2.1180   -1.1699 C   0  0  0  0  0  0  0  0  0  0  0  0
   -6.6490    5.7993    2.9832 O   0  0  0  0  0  0  0  0  0  0  0  0
   -4.1954    5.8935    3.4590 O   0  0  0  0  0  0  0  0  0  0  0  0
   -4.1672    6.8489    2.4208 C   0  0  0  0  0  0  0  0  0  0  0  0
   -0.7044    6.6805   -1.1318 O   0  0  0  0  0  0  0  0  0  0  0  0
   -2.7600    5.4065   -0.3629 O   0  0  0  0  0  0  0  0  0  0  0  0
   -2.4567    4.4122   -1.3136 C   0  0  0  0  0  0  0  0  0  0  0  0
  -11.4147   -2.8030   -0.8791 H   0  0  0  0  0  0  0  0  0  0  0  0
  -11.0536   -1.2435   -1.6647 H   0  0  0  0  0  0  0  0  0  0  0  0
  -10.0536   -1.7985   -0.2925 H   0  0  0  0  0  0  0  0  0  0  0  0
   -3.4243    7.6008    2.6843 H   0  0  0  0  0  0  0  0  0  0  0  0
   -5.1538    7.3099    2.3261 H   0  0  0  0  0  0  0  0  0  0  0  0
   -3.9028    6.3738    1.4727 H   0  0  0  0  0  0  0  0  0  0  0  0
   -3.3686    4.2036   -1.8720 H   0  0  0  0  0  0  0  0  0  0  0  0
   -2.1049    3.5015   -0.8205 H   0  0  0  0  0  0  0  0  0  0  0  0
   -1.6863    4.7821   -1.9977 H   0  0  0  0  0  0  0  0  0  0  0  0
   -3.8195   -6.6502    3.9310 H   0  0  0  0  0  0  0  0  0  0  0  0
   -3.5427   -4.9391    4.3930 H   0  0  0  0  0  0  0  0  0  0  0  0
   -2.4378   -6.2099    4.9772 H   0  0  0  0  0  0  0  0  0  0  0  0
    3.3232   -4.1786    1.9275 H   0  0  0  0  0  0  0  0  0  0  0  0
    2.3815   -3.0741    0.8894 H   0  0  0  0  0  0  0  0  0  0  0  0
    2.2492   -4.8442    0.6639 H   0  0  0  0  0  0  0  0  0  0  0  0
    9.2763    2.8498    6.1699 H   0  0  0  0  0  0  0  0  0  0  0  0
    8.7298    4.2541    7.1160 H   0  0  0  0  0  0  0  0  0  0  0  0
    9.6478    4.5030    5.6047 H   0  0  0  0  0  0  0  0  0  0  0  0
   -8.5386    0.6109   -1.7015 H   0  0  0  0  0  0  0  0  0  0  0  0
   -6.6085   -3.1952   -1.9714 H   0  0  0  0  0  0  0  0  0  0  0  0
   -7.1501    3.7938    1.4638 H   0  0  0  0  0  0  0  0  0  0  0  0
   -3.2171   -4.3575    0.6930 H   0  0  0  0  0  0  0  0  0  0  0  0
   -3.2685    3.3985    3.2198 H   0  0  0  0  0  0  0  0  0  0  0  0
   -1.5598   -1.8441    3.7109 H   0  0  0  0  0  0  0  0  0  0  0  0
   -2.2593    4.2389    1.6731 H   0  0  0  0  0  0  0  0  0  0  0  0
    0.0220   -1.7678    2.0808 H   0  0  0  0  0  0  0  0  0  0  0  0
    3.4070   -1.5397    4.6432 H   0  0  0  0  0  0  0  0  0  0  0  0
    1.3024    6.3718    0.7906 H   0  0  0  0  0  0  0  0  0  0  0  0
    4.8456    5.8943    3.5966 H   0  0  0  0  0  0  0  0  0  0  0  0
    5.9398    2.2308    5.0241 H   0  0  0  0  0  0  0  0  0  0  0  0
    0.6457    3.7117    7.4339 C   0  0  0  0  0  0  0  0  0  0  0  0
    0.9717    2.3643    7.5592 C   0  0  0  0  0  0  0  0  0  0  0  0
    2.2577    1.9012    7.1948 C   0  0  0  0  0  0  0  0  0  0  0  0
    3.2089    2.8752    6.7900 C   0  0  0  0  0  0  0  0  0  0  0  0
    2.8444    4.2071    6.6327 C   0  0  0  0  0  0  0  0  0  0  0  0
    1.5615    4.6091    6.9315 C   0  0  0  0  0  0  0  0  0  0  0  0
    2.6800    0.5168    7.2647 C   0  0  0  0  0  0  0  0  0  0  0  0
    4.0722    0.3521    7.4629 C   0  0  0  0  0  0  0  0  0  0  0  0
    4.9890    1.3686    7.1047 C   0  0  0  0  0  0  0  0  0  0  0  0
    4.5203    2.5156    6.5080 N   0  0  0  0  0  0  0  0  0  0  0  0
    1.9165   -0.6801    7.1307 C   0  0  0  0  0  0  0  0  0  0  0  0
    2.5619   -1.9117    7.5309 C   0  0  0  0  0  0  0  0  0  0  0  0
    3.8016   -1.9713    7.9989 N   0  0  0  0  0  0  0  0  0  0  0  0
    4.5858   -0.9050    7.9054 C   0  0  0  0  0  0  0  0  0  0  0  0
    5.9684   -1.0401    8.1616 C   0  0  0  0  0  0  0  0  0  0  0  0
    6.8168   -0.0106    7.8428 C   0  0  0  0  0  0  0  0  0  0  0  0
    6.3516    1.1679    7.2757 C   0  0  0  0  0  0  0  0  0  0  0  0
    0.6434   -0.8153    6.4959 C   0  0  0  0  0  0  0  0  0  0  0  0
    0.1760   -2.0913    6.1793 C   0  0  0  0  0  0  0  0  0  0  0  0
    0.7778   -3.2545    6.6363 C   0  0  0  0  0  0  0  0  0  0  0  0
    1.9138   -3.1684    7.3878 C   0  0  0  0  0  0  0  0  0  0  0  0
    0.0591    1.5289    8.0524 O   0  0  0  0  0  0  0  0  0  0  0  0
   -0.1149    0.1949    6.0941 O   0  0  0  0  0  0  0  0  0  0  0  0
    1.1040    6.3615    6.6199 S   0  0  0  0  0  0  0  0  0  0  0  0
   -0.1789   -4.7879    6.3502 S   0  0  0  0  0  0  0  0  0  0  0  0
    8.6226   -0.1897    8.1562 S   0  0  0  0  0  0  0  0  0  0  0  0
   -1.7234   -1.9718    8.3706 C   0  0  0  0  0  0  0  0  0  0  0  0
   -2.2339   -0.9486    7.5729 C   0  0  0  0  0  0  0  0  0  0  0  0
   -3.0830   -1.2215    6.4698 C   0  0  0  0  0  0  0  0  0  0  0  0
   -3.3010   -2.6221    6.2021 C   0  0  0  0  0  0  0  0  0  0  0  0
   -2.7770   -3.6362    7.0504 C   0  0  0  0  0  0  0  0  0  0  0  0
   -2.0114   -3.3047    8.1294 C   0  0  0  0  0  0  0  0  0  0  0  0
   -3.8066   -0.2429    5.6877 C   0  0  0  0  0  0  0  0  0  0  0  0
   -4.7275   -0.8014    4.7644 C   0  0  0  0  0  0  0  0  0  0  0  0
   -4.7311   -2.1980    4.4700 C   0  0  0  0  0  0  0  0  0  0  0  0
   -4.0268   -3.0684    5.1816 N   0  0  0  0  0  0  0  0  0  0  0  0
   -3.8556    1.2046    5.8260 C   0  0  0  0  0  0  0  0  0  0  0  0
   -5.1064    1.8023    5.3996 C   0  0  0  0  0  0  0  0  0  0  0  0
   -5.9669    1.2282    4.5667 N   0  0  0  0  0  0  0  0  0  0  0  0
   -5.7263   -0.0013    4.1370 C   0  0  0  0  0  0  0  0  0  0  0  0
   -6.5592   -0.5456    3.1349 C   0  0  0  0  0  0  0  0  0  0  0  0
   -6.4278   -1.8685    2.7786 C   0  0  0  0  0  0  0  0  0  0  0  0
   -5.5443   -2.7006    3.4298 C   0  0  0  0  0  0  0  0  0  0  0  0
   -2.8803    2.1630    6.2548 C   0  0  0  0  0  0  0  0  0  0  0  0
   -3.2770    3.4774    6.5435 C   0  0  0  0  0  0  0  0  0  0  0  0
   -4.5679    3.9363    6.3633 C   0  0  0  0  0  0  0  0  0  0  0  0
   -5.4899    3.1112    5.7844 C   0  0  0  0  0  0  0  0  0  0  0  0
   -1.8700    0.2862    7.8923 O   0  0  0  0  0  0  0  0  0  0  0  0
   -1.5665    2.0101    6.3220 O   0  0  0  0  0  0  0  0  0  0  0  0
   -1.3872   -4.5352    9.3691 S   0  0  0  0  0  0  0  0  0  0  0  0
   -5.0330    5.6437    6.7888 S   0  0  0  0  0  0  0  0  0  0  0  0
   -7.5088   -2.6068    1.4962 S   0  0  0  0  0  0  0  0  0  0  0  0
   -0.8920    0.9925    7.0835 B   0  0  0  0  0  0  0  0  0  0  0  0
    9.2083    0.9009    7.3968 O   0  0  0  0  0  0  0  0  0  0  0  0
    8.5653    0.2760    9.7545 O   0  0  0  0  0  0  0  0  0  0  0  0
    8.3737    1.6437   10.0171 C   0  0  0  0  0  0  0  0  0  0  0  0
    0.8905   -5.6445    5.4468 O   0  0  0  0  0  0  0  0  0  0  0  0
    2.0193   -6.2322    6.0668 C   0  0  0  0  0  0  0  0  0  0  0  0
   -0.1361   -5.4084    7.6938 O   0  0  0  0  0  0  0  0  0  0  0  0
   -0.2783   -3.8360    9.9746 O   0  0  0  0  0  0  0  0  0  0  0  0
   -2.7115   -4.2551   10.3942 O   0  0  0  0  0  0  0  0  0  0  0  0
   -2.6737   -3.1570   11.2629 C   0  0  0  0  0  0  0  0  0  0  0  0
   -8.3694   -1.5028    1.1055 O   0  0  0  0  0  0  0  0  0  0  0  0
   -8.3733   -3.5634    2.5421 O   0  0  0  0  0  0  0  0  0  0  0  0
   -9.2798   -2.9093    3.3941 C   0  0  0  0  0  0  0  0  0  0  0  0
   -5.9480    6.0350    5.7104 O   0  0  0  0  0  0  0  0  0  0  0  0
   -3.5339    6.2326    6.4417 O   0  0  0  0  0  0  0  0  0  0  0  0
   -3.4229    7.6374    6.3607 C   0  0  0  0  0  0  0  0  0  0  0  0
    1.8932    6.6841    5.4448 O   0  0  0  0  0  0  0  0  0  0  0  0
   -0.4690    6.0861    6.1524 O   0  0  0  0  0  0  0  0  0  0  0  0
   -0.6836    5.4369    4.9196 C   0  0  0  0  0  0  0  0  0  0  0  0
  -10.0817   -3.6100    3.6212 H   0  0  0  0  0  0  0  0  0  0  0  0
   -9.6940   -2.0301    2.8907 H   0  0  0  0  0  0  0  0  0  0  0  0
   -8.7851   -2.5984    4.3192 H   0  0  0  0  0  0  0  0  0  0  0  0
   -2.3972    7.8432    6.0600 H   0  0  0  0  0  0  0  0  0  0  0  0
   -3.6206    8.1040    7.3293 H   0  0  0  0  0  0  0  0  0  0  0  0
   -4.1204    8.0306    5.6169 H   0  0  0  0  0  0  0  0  0  0  0  0
   -1.6834    5.7053    4.5805 H   0  0  0  0  0  0  0  0  0  0  0  0
   -0.6151    4.3516    5.0340 H   0  0  0  0  0  0  0  0  0  0  0  0
    0.0592    5.7782    4.1911 H   0  0  0  0  0  0  0  0  0  0  0  0
   -3.1997   -3.4297   12.1784 H   0  0  0  0  0  0  0  0  0  0  0  0
   -3.1579   -2.2870   10.8055 H   0  0  0  0  0  0  0  0  0  0  0  0
   -1.6341   -2.9092   11.4985 H   0  0  0  0  0  0  0  0  0  0  0  0
    1.8252   -6.3497    7.1361 H   0  0  0  0  0  0  0  0  0  0  0  0
    2.8949   -5.6045    5.8912 H   0  0  0  0  0  0  0  0  0  0  0  0
    2.1657   -7.2115    5.6110 H   0  0  0  0  0  0  0  0  0  0  0  0
    8.8103    1.8525   10.9925 H   0  0  0  0  0  0  0  0  0  0  0  0
    7.3083    1.8930   10.0268 H   0  0  0  0  0  0  0  0  0  0  0  0
    8.8808    2.2448    9.2552 H   0  0  0  0  0  0  0  0  0  0  0  0
   -7.3126    0.0767    2.6768 H   0  0  0  0  0  0  0  0  0  0  0  0
   -5.4976   -3.7519    3.1950 H   0  0  0  0  0  0  0  0  0  0  0  0
   -6.4944    3.4266    5.5567 H   0  0  0  0  0  0  0  0  0  0  0  0
   -3.0560   -4.6541    6.8382 H   0  0  0  0  0  0  0  0  0  0  0  0
   -2.5121    4.1531    6.8864 H   0  0  0  0  0  0  0  0  0  0  0  0
   -1.0581   -1.6995    9.1760 H   0  0  0  0  0  0  0  0  0  0  0  0
   -0.3480    4.0216    7.7122 H   0  0  0  0  0  0  0  0  0  0  0  0
   -0.7218   -2.1695    5.5900 H   0  0  0  0  0  0  0  0  0  0  0  0
    2.3823   -4.0261    7.8377 H   0  0  0  0  0  0  0  0  0  0  0  0
    3.5650    4.9389    6.3114 H   0  0  0  0  0  0  0  0  0  0  0  0
    7.0627    1.9273    6.9913 H   0  0  0  0  0  0  0  0  0  0  0  0
    6.3313   -1.9743    8.5574 H   0  0  0  0  0  0  0  0  0  0  0  0
  1  2  2  0  0  0  0
  1 96  1  0  0  0  0
  2  3  1  0  0  0  0
  3  4  2  0  0  0  0
  3  7  1  0  0  0  0
  4  5  1  0  0  0  0
  5  6  2  0  0  0  0
  5 99  1  0  0  0  0
  6  1  1  0  0  0  0
  6 24  1  0  0  0  0
  7  8  1  0  0  0  0
  7 11  2  0  0  0  0
  8  9  1  0  0  0  0
  9 10  2  0  0  0  0
 10  4  1  0  0  0  0
 11 12  1  0  0  0  0
 11 18  1  0  0  0  0
 12 13  2  0  0  0  0
 13 14  1  0  0  0  0
 14  8  1  0  0  0  0
 14 15  2  0  0  0  0
 15 16  1  0  0  0  0
 15101  1  0  0  0  0
 16 17  2  0  0  0  0
 16 26  1  0  0  0  0
 17  9  1  0  0  0  0
 17100  1  0  0  0  0
 18 19  2  0  0  0  0
 19 20  1  0  0  0  0
 19 97  1  0  0  0  0
 20 21  2  0  0  0  0
 20 25  1  0  0  0  0
 21 12  1  0  0  0  0
 21 98  1  0  0  0  0
 22  2  1  0  0  0  0
 23 18  1  0  0  0  0
 24 69  2  0  0  0  0
 24 70  1  0  0  0  0
 25 57  1  0  0  0  0
 25 59  2  0  0  0  0
 26 54  2  0  0  0  0
 26 55  1  0  0  0  0
 27 28  2  0  0  0  0
 27 95  1  0  0  0  0
 28 29  1  0  0  0  0
 28 48  1  0  0  0  0
 29 30  2  0  0  0  0
 29 33  1  0  0  0  0
 30 31  1  0  0  0  0
 31 32  2  0  0  0  0
 31 93  1  0  0  0  0
 32 27  1  0  0  0  0
 32 50  1  0  0  0  0
 33 37  2  0  0  0  0
 34 33  1  0  0  0  0
 34 35  1  0  0  0  0
 35 36  2  0  0  0  0
 36 30  1  0  0  0  0
 37 38  1  0  0  0  0
 37 44  1  0  0  0  0
 38 39  2  0  0  0  0
 39 40  1  0  0  0  0
 40 34  1  0  0  0  0
 40 41  2  0  0  0  0
 41 42  1  0  0  0  0
 41 90  1  0  0  0  0
 42 43  2  0  0  0  0
 42 52  1  0  0  0  0
 43 35  1  0  0  0  0
 43 91  1  0  0  0  0
 44 45  2  0  0  0  0
 44 49  1  0  0  0  0
 45 46  1  0  0  0  0
 45 94  1  0  0  0  0
 46 47  2  0  0  0  0
 46 51  1  0  0  0  0
 47 38  1  0  0  0  0
 47 92  1  0  0  0  0
 50 60  2  0  0  0  0
 50 61  1  0  0  0  0
 51 66  2  0  0  0  0
 51 67  1  0  0  0  0
 52 63  2  0  0  0  0
 52 64  1  0  0  0  0
 53 49  1  0  0  0  0
 53 22  1  0  0  0  0
 53 48  1  0  0  0  0
 53 23  1  0  0  0  0
 55 56  1  0  0  0  0
 56 87  1  0  0  0  0
 56 88  1  0  0  0  0
 56 89  1  0  0  0  0
 57 58  1  0  0  0  0
 58 84  1  0  0  0  0
 58 85  1  0  0  0  0
 58 86  1  0  0  0  0
 61 62  1  0  0  0  0
 62 81  1  0  0  0  0
 62 82  1  0  0  0  0
 62 83  1  0  0  0  0
 64 65  1  0  0  0  0
 65 72  1  0  0  0  0
 65 73  1  0  0  0  0
 65 74  1  0  0  0  0
 67 68  1  0  0  0  0
 68 75  1  0  0  0  0
 68 76  1  0  0  0  0
 68 77  1  0  0  0  0
 70 71  1  0  0  0  0
 71 78  1  0  0  0  0
 71 79  1  0  0  0  0
 71 80  1  0  0  0  0
102103  2  0  0  0  0
102197  1  0  0  0  0
103104  1  0  0  0  0
104105  2  0  0  0  0
104108  1  0  0  0  0
105106  1  0  0  0  0
106107  2  0  0  0  0
106200  1  0  0  0  0
107102  1  0  0  0  0
107125  1  0  0  0  0
108109  1  0  0  0  0
108112  2  0  0  0  0
109110  1  0  0  0  0
110111  2  0  0  0  0
111105  1  0  0  0  0
112113  1  0  0  0  0
112119  1  0  0  0  0
113114  2  0  0  0  0
114115  1  0  0  0  0
115109  1  0  0  0  0
115116  2  0  0  0  0
116117  1  0  0  0  0
116202  1  0  0  0  0
117118  2  0  0  0  0
117127  1  0  0  0  0
118110  1  0  0  0  0
118201  1  0  0  0  0
119120  2  0  0  0  0
120121  1  0  0  0  0
120198  1  0  0  0  0
121122  2  0  0  0  0
121126  1  0  0  0  0
122113  1  0  0  0  0
122199  1  0  0  0  0
123103  1  0  0  0  0
124119  1  0  0  0  0
125170  2  0  0  0  0
125171  1  0  0  0  0
126158  1  0  0  0  0
126160  2  0  0  0  0
127155  2  0  0  0  0
127156  1  0  0  0  0
128129  2  0  0  0  0
128196  1  0  0  0  0
129130  1  0  0  0  0
129149  1  0  0  0  0
130131  2  0  0  0  0
130134  1  0  0  0  0
131132  1  0  0  0  0
132133  2  0  0  0  0
132194  1  0  0  0  0
133128  1  0  0  0  0
133151  1  0  0  0  0
134138  2  0  0  0  0
135134  1  0  0  0  0
135136  1  0  0  0  0
136137  2  0  0  0  0
137131  1  0  0  0  0
138139  1  0  0  0  0
138145  1  0  0  0  0
139140  2  0  0  0  0
140141  1  0  0  0  0
141135  1  0  0  0  0
141142  2  0  0  0  0
142143  1  0  0  0  0
142191  1  0  0  0  0
143144  2  0  0  0  0
143153  1  0  0  0  0
144136  1  0  0  0  0
144192  1  0  0  0  0
145146  2  0  0  0  0
145150  1  0  0  0  0
146147  1  0  0  0  0
146195  1  0  0  0  0
147148  2  0  0  0  0
147152  1  0  0  0  0
148139  1  0  0  0  0
148193  1  0  0  0  0
151161  2  0  0  0  0
151162  1  0  0  0  0
152167  2  0  0  0  0
152168  1  0  0  0  0
153164  2  0  0  0  0
153165  1  0  0  0  0
154150  1  0  0  0  0
154123  1  0  0  0  0
154149  1  0  0  0  0
154124  1  0  0  0  0
156157  1  0  0  0  0
157188  1  0  0  0  0
157189  1  0  0  0  0
157190  1  0  0  0  0
158159  1  0  0  0  0
159185  1  0  0  0  0
159186  1  0  0  0  0
159187  1  0  0  0  0
162163  1  0  0  0  0
163182  1  0  0  0  0
163183  1  0  0  0  0
163184  1  0  0  0  0
165166  1  0  0  0  0
166173  1  0  0  0  0
166174  1  0  0  0  0
166175  1  0  0  0  0
168169  1  0  0  0  0
169176  1  0  0  0  0
169177  1  0  0  0  0
169178  1  0  0  0  0
171172  1  0  0  0  0
172179  1  0  0  0  0
172180  1  0  0  0  0
172181  1  0  0  0  0
M  CHG  1   8   1
M  CHG  1  53  -1
M  CHG  1 109   1
M  CHG  1 154  -1
M  END
