 energy: -414.652664652739 gnorm: 0.000748493322 xtb: 6.6.1 (8d0f1dd)
          10312414413D

202224  0     0  0            999 V2000
   -0.7738    3.5576    2.7367 C   0  0  0  0  0  0  0  0  0  0  0  0
   -0.3320    2.2363    2.6541 C   0  0  0  0  0  0  0  0  0  0  0  0
    1.0673    1.9811    2.7371 C   0  0  0  0  0  0  0  0  0  0  0  0
    1.9320    3.1295    2.9178 C   0  0  0  0  0  0  0  0  0  0  0  0
    1.4353    4.4473    2.7502 C   0  0  0  0  0  0  0  0  0  0  0  0
    0.0919    4.6416    2.6718 C   0  0  0  0  0  0  0  0  0  0  0  0
    1.7062    0.6963    2.7853 C   0  0  0  0  0  0  0  0  0  0  0  0
    2.9941    0.6793    3.3742 C   0  0  0  0  0  0  0  0  0  0  0  0
    3.7323    1.8805    3.5550 C   0  0  0  0  0  0  0  0  0  0  0  0
    3.2196    3.0637    3.2347 N   0  0  0  0  0  0  0  0  0  0  0  0
    1.2874   -0.5700    2.2330 C   0  0  0  0  0  0  0  0  0  0  0  0
    2.0116   -1.7349    2.6692 C   0  0  0  0  0  0  0  0  0  0  0  0
    3.0176   -1.7140    3.5417 N   0  0  0  0  0  0  0  0  0  0  0  0
    3.6009   -0.5444    3.7728 C   0  0  0  0  0  0  0  0  0  0  0  0
    4.8684   -0.5416    4.3858 C   0  0  0  0  0  0  0  0  0  0  0  0
    5.5913    0.6336    4.4788 C   0  0  0  0  0  0  0  0  0  0  0  0
    5.0535    1.8296    4.0548 C   0  0  0  0  0  0  0  0  0  0  0  0
    0.3889   -0.7610    1.1492 C   0  0  0  0  0  0  0  0  0  0  0  0
    0.3808   -1.9810    0.4656 C   0  0  0  0  0  0  0  0  0  0  0  0
    1.0757   -3.0892    0.9270 C   0  0  0  0  0  0  0  0  0  0  0  0
    1.8118   -3.0011    2.0729 C   0  0  0  0  0  0  0  0  0  0  0  0
   -1.2721    1.2968    2.5819 O   0  0  0  0  0  0  0  0  0  0  0  0
   -0.3991    0.1908    0.6443 O   0  0  0  0  0  0  0  0  0  0  0  0
   -0.6037    6.2445    2.1184 S   0  0  0  0  0  0  0  0  0  0  0  0
    1.1831   -4.6574    0.0248 S   0  0  0  0  0  0  0  0  0  0  0  0
    7.2724    0.4795    5.2092 S   0  0  0  0  0  0  0  0  0  0  0  0
   -2.2311   -2.7490    1.3161 C   0  0  0  0  0  0  0  0  0  0  0  0
   -2.8688   -1.5241    1.0814 C   0  0  0  0  0  0  0  0  0  0  0  0
   -3.9551   -1.4483    0.1571 C   0  0  0  0  0  0  0  0  0  0  0  0
   -4.2612   -2.6704   -0.5565 C   0  0  0  0  0  0  0  0  0  0  0  0
   -3.4970   -3.8455   -0.3715 C   0  0  0  0  0  0  0  0  0  0  0  0
   -2.5312   -3.8884    0.5853 C   0  0  0  0  0  0  0  0  0  0  0  0
   -4.8609   -0.3414   -0.0567 C   0  0  0  0  0  0  0  0  0  0  0  0
   -6.0417   -0.6361   -0.7861 C   0  0  0  0  0  0  0  0  0  0  0  0
   -6.1851   -1.8641   -1.4924 C   0  0  0  0  0  0  0  0  0  0  0  0
   -5.2788   -2.8308   -1.3943 N   0  0  0  0  0  0  0  0  0  0  0  0
   -4.7738    1.0203    0.4150 C   0  0  0  0  0  0  0  0  0  0  0  0
   -6.0205    1.7510    0.4987 C   0  0  0  0  0  0  0  0  0  0  0  0
   -7.1428    1.3818   -0.1014 N   0  0  0  0  0  0  0  0  0  0  0  0
   -7.1294    0.2856   -0.8471 C   0  0  0  0  0  0  0  0  0  0  0  0
   -8.2419    0.0243   -1.6726 C   0  0  0  0  0  0  0  0  0  0  0  0
   -8.2952   -1.1309   -2.4175 C   0  0  0  0  0  0  0  0  0  0  0  0
   -7.2985   -2.0787   -2.3299 C   0  0  0  0  0  0  0  0  0  0  0  0
   -3.5987    1.7790    0.6645 C   0  0  0  0  0  0  0  0  0  0  0  0
   -3.7096    3.0939    1.1155 C   0  0  0  0  0  0  0  0  0  0  0  0
   -4.9334    3.6786    1.4200 C   0  0  0  0  0  0  0  0  0  0  0  0
   -6.0863    3.0175    1.1285 C   0  0  0  0  0  0  0  0  0  0  0  0
   -2.4714   -0.5147    1.8560 O   0  0  0  0  0  0  0  0  0  0  0  0
   -2.3724    1.3342    0.3687 O   0  0  0  0  0  0  0  0  0  0  0  0
   -1.6441   -5.4708    0.7357 S   0  0  0  0  0  0  0  0  0  0  0  0
   -5.0446    5.3419    2.1892 S   0  0  0  0  0  0  0  0  0  0  0  0
   -9.7056   -1.4593   -3.5511 S   0  0  0  0  0  0  0  0  0  0  0  0
   -1.6117    0.5846    1.3670 B   0  0  0  0  0  0  0  0  0  0  0  0
    7.9721   -0.3876    4.2817 O   0  0  0  0  0  0  0  0  0  0  0  0
    7.8263    2.0478    4.9120 O   0  0  0  0  0  0  0  0  0  0  0  0
    8.5020    2.2845    3.6987 C   0  0  0  0  0  0  0  0  0  0  0  0
   -0.2839   -4.4155   -0.8374 O   0  0  0  0  0  0  0  0  0  0  0  0
   -0.2955   -4.8934   -2.1571 C   0  0  0  0  0  0  0  0  0  0  0  0
    2.2287   -4.4218   -0.9604 O   0  0  0  0  0  0  0  0  0  0  0  0
   -0.5840   -5.2382    1.7181 O   0  0  0  0  0  0  0  0  0  0  0  0
   -2.8486   -6.3153    1.5212 O   0  0  0  0  0  0  0  0  0  0  0  0
   -3.0467   -6.1050    2.9008 C   0  0  0  0  0  0  0  0  0  0  0  0
  -10.4499   -0.2147   -3.5715 O   0  0  0  0  0  0  0  0  0  0  0  0
  -10.5163   -2.5344   -2.5777 O   0  0  0  0  0  0  0  0  0  0  0  0
  -11.1968   -1.9890   -1.4688 C   0  0  0  0  0  0  0  0  0  0  0  0
   -6.2471    5.8854    1.5881 O   0  0  0  0  0  0  0  0  0  0  0  0
   -3.7503    6.0202    1.3863 O   0  0  0  0  0  0  0  0  0  0  0  0
   -3.9594    6.3116    0.0302 C   0  0  0  0  0  0  0  0  0  0  0  0
    0.5834    7.0326    1.8246 O   0  0  0  0  0  0  0  0  0  0  0  0
   -1.0841    5.5907    0.6433 O   0  0  0  0  0  0  0  0  0  0  0  0
   -0.0769    5.2268   -0.2590 C   0  0  0  0  0  0  0  0  0  0  0  0
  -11.9955   -2.6826   -1.2099 H   0  0  0  0  0  0  0  0  0  0  0  0
  -11.6269   -1.0200   -1.7408 H   0  0  0  0  0  0  0  0  0  0  0  0
  -10.5144   -1.8628   -0.6256 H   0  0  0  0  0  0  0  0  0  0  0  0
   -3.3183    7.1526   -0.2300 H   0  0  0  0  0  0  0  0  0  0  0  0
   -5.0104    6.5778   -0.1272 H   0  0  0  0  0  0  0  0  0  0  0  0
   -3.7047    5.4507   -0.5937 H   0  0  0  0  0  0  0  0  0  0  0  0
   -0.4489    5.4052   -1.2688 H   0  0  0  0  0  0  0  0  0  0  0  0
    0.1832    4.1689   -0.1484 H   0  0  0  0  0  0  0  0  0  0  0  0
    0.8122    5.8428   -0.0864 H   0  0  0  0  0  0  0  0  0  0  0  0
   -3.7819   -6.8397    3.2292 H   0  0  0  0  0  0  0  0  0  0  0  0
   -3.4084   -5.0911    3.0993 H   0  0  0  0  0  0  0  0  0  0  0  0
   -2.1031   -6.2661    3.4306 H   0  0  0  0  0  0  0  0  0  0  0  0
   -0.6529   -5.9269   -2.1905 H   0  0  0  0  0  0  0  0  0  0  0  0
    0.7166   -4.8371   -2.5702 H   0  0  0  0  0  0  0  0  0  0  0  0
   -0.9633   -4.2548   -2.7367 H   0  0  0  0  0  0  0  0  0  0  0  0
    9.2590    3.0411    3.8970 H   0  0  0  0  0  0  0  0  0  0  0  0
    7.8060    2.6444    2.9373 H   0  0  0  0  0  0  0  0  0  0  0  0
    8.9686    1.3576    3.3515 H   0  0  0  0  0  0  0  0  0  0  0  0
   -9.0402    0.7483   -1.7178 H   0  0  0  0  0  0  0  0  0  0  0  0
   -7.3487   -3.0011   -2.8859 H   0  0  0  0  0  0  0  0  0  0  0  0
   -7.0496    3.4854    1.2455 H   0  0  0  0  0  0  0  0  0  0  0  0
   -3.7585   -4.7121   -0.9564 H   0  0  0  0  0  0  0  0  0  0  0  0
   -2.8074    3.6792    1.1723 H   0  0  0  0  0  0  0  0  0  0  0  0
   -1.4804   -2.7922    2.0891 H   0  0  0  0  0  0  0  0  0  0  0  0
   -1.8339    3.7336    2.8003 H   0  0  0  0  0  0  0  0  0  0  0  0
   -0.2093   -2.0389   -0.4354 H   0  0  0  0  0  0  0  0  0  0  0  0
    2.3799   -3.8289    2.4627 H   0  0  0  0  0  0  0  0  0  0  0  0
    2.1340    5.2672    2.7209 H   0  0  0  0  0  0  0  0  0  0  0  0
    5.6072    2.7532    4.1058 H   0  0  0  0  0  0  0  0  0  0  0  0
    5.2876   -1.4868    4.6918 H   0  0  0  0  0  0  0  0  0  0  0  0
   -0.4056    4.2139    6.7349 C   0  0  0  0  0  0  0  0  0  0  0  0
    0.3546    3.0524    6.7991 C   0  0  0  0  0  0  0  0  0  0  0  0
    1.7197    3.0843    6.4404 C   0  0  0  0  0  0  0  0  0  0  0  0
    2.2611    4.3558    6.0417 C   0  0  0  0  0  0  0  0  0  0  0  0
    1.4044    5.4531    5.7875 C   0  0  0  0  0  0  0  0  0  0  0  0
    0.0939    5.3777    6.1608 C   0  0  0  0  0  0  0  0  0  0  0  0
    2.6385    1.9923    6.6196 C   0  0  0  0  0  0  0  0  0  0  0  0
    3.9819    2.3893    6.7978 C   0  0  0  0  0  0  0  0  0  0  0  0
    4.4073    3.6982    6.4176 C   0  0  0  0  0  0  0  0  0  0  0  0
    3.5644    4.6102    5.9551 N   0  0  0  0  0  0  0  0  0  0  0  0
    2.3980    0.5717    6.6163 C   0  0  0  0  0  0  0  0  0  0  0  0
    3.4640   -0.2523    7.1438 C   0  0  0  0  0  0  0  0  0  0  0  0
    4.6231    0.2127    7.5967 N   0  0  0  0  0  0  0  0  0  0  0  0
    4.9394    1.4778    7.3259 C   0  0  0  0  0  0  0  0  0  0  0  0
    6.2724    1.8916    7.5014 C   0  0  0  0  0  0  0  0  0  0  0  0
    6.6772    3.1162    7.0079 C   0  0  0  0  0  0  0  0  0  0  0  0
    5.7860    4.0070    6.4623 C   0  0  0  0  0  0  0  0  0  0  0  0
    1.3190   -0.1169    5.9921 C   0  0  0  0  0  0  0  0  0  0  0  0
    1.4021   -1.5054    5.8124 C   0  0  0  0  0  0  0  0  0  0  0  0
    2.3877   -2.2769    6.4113 C   0  0  0  0  0  0  0  0  0  0  0  0
    3.3749   -1.6673    7.1272 C   0  0  0  0  0  0  0  0  0  0  0  0
   -0.2361    1.9392    7.2424 O   0  0  0  0  0  0  0  0  0  0  0  0
    0.2618    0.4655    5.4278 O   0  0  0  0  0  0  0  0  0  0  0  0
   -1.0886    6.7597    5.9588 S   0  0  0  0  0  0  0  0  0  0  0  0
    2.4878   -4.0953    6.3270 S   0  0  0  0  0  0  0  0  0  0  0  0
    8.4781    3.4131    6.8978 S   0  0  0  0  0  0  0  0  0  0  0  0
   -1.2670   -1.9668    6.9400 C   0  0  0  0  0  0  0  0  0  0  0  0
   -1.9644   -0.9419    6.3062 C   0  0  0  0  0  0  0  0  0  0  0  0
   -2.8072   -1.2017    5.1942 C   0  0  0  0  0  0  0  0  0  0  0  0
   -2.8418   -2.5736    4.7550 C   0  0  0  0  0  0  0  0  0  0  0  0
   -2.0520   -3.5714    5.3740 C   0  0  0  0  0  0  0  0  0  0  0  0
   -1.3026   -3.2687    6.4696 C   0  0  0  0  0  0  0  0  0  0  0  0
   -3.7080   -0.2653    4.5569 C   0  0  0  0  0  0  0  0  0  0  0  0
   -4.6944   -0.8703    3.7358 C   0  0  0  0  0  0  0  0  0  0  0  0
   -4.5848   -2.2307    3.3238 C   0  0  0  0  0  0  0  0  0  0  0  0
   -3.6387   -3.0337    3.7907 N   0  0  0  0  0  0  0  0  0  0  0  0
   -3.8106    1.1733    4.6932 C   0  0  0  0  0  0  0  0  0  0  0  0
   -5.0979    1.7410    4.3425 C   0  0  0  0  0  0  0  0  0  0  0  0
   -6.0744    1.0847    3.7245 N   0  0  0  0  0  0  0  0  0  0  0  0
   -5.8421   -0.1483    3.3020 C   0  0  0  0  0  0  0  0  0  0  0  0
   -6.7875   -0.7468    2.4388 C   0  0  0  0  0  0  0  0  0  0  0  0
   -6.5815   -2.0241    1.9769 C   0  0  0  0  0  0  0  0  0  0  0  0
   -5.5002   -2.7697    2.3939 C   0  0  0  0  0  0  0  0  0  0  0  0
   -2.8003    2.1347    5.0204 C   0  0  0  0  0  0  0  0  0  0  0  0
   -3.1452    3.4890    5.1020 C   0  0  0  0  0  0  0  0  0  0  0  0
   -4.4354    3.9648    4.9429 C   0  0  0  0  0  0  0  0  0  0  0  0
   -5.4221    3.1005    4.5764 C   0  0  0  0  0  0  0  0  0  0  0  0
   -1.8069    0.2771    6.8283 O   0  0  0  0  0  0  0  0  0  0  0  0
   -1.4999    1.9254    5.1593 O   0  0  0  0  0  0  0  0  0  0  0  0
   -0.3417   -4.5774    7.2797 S   0  0  0  0  0  0  0  0  0  0  0  0
   -4.7993    5.6955    5.3517 S   0  0  0  0  0  0  0  0  0  0  0  0
   -7.7351   -2.8057    0.8008 S   0  0  0  0  0  0  0  0  0  0  0  0
   -0.8302    1.1306    6.1682 B   0  0  0  0  0  0  0  0  0  0  0  0
    8.6048    4.6245    6.1128 O   0  0  0  0  0  0  0  0  0  0  0  0
    8.6816    3.8594    8.5113 O   0  0  0  0  0  0  0  0  0  0  0  0
    8.1550    5.1057    8.8789 C   0  0  0  0  0  0  0  0  0  0  0  0
    1.0488   -4.2961    5.4134 O   0  0  0  0  0  0  0  0  0  0  0  0
    1.0519   -5.4108    4.5516 C   0  0  0  0  0  0  0  0  0  0  0  0
    3.5819   -4.3651    5.4099 O   0  0  0  0  0  0  0  0  0  0  0  0
    0.6785   -3.8677    8.0468 O   0  0  0  0  0  0  0  0  0  0  0  0
   -1.5327   -4.9851    8.3976 O   0  0  0  0  0  0  0  0  0  0  0  0
   -1.7728   -4.0909    9.4532 C   0  0  0  0  0  0  0  0  0  0  0  0
   -8.7737   -1.8050    0.6158 O   0  0  0  0  0  0  0  0  0  0  0  0
   -8.3325   -3.9328    1.8795 O   0  0  0  0  0  0  0  0  0  0  0  0
   -9.1381   -3.4289    2.9122 C   0  0  0  0  0  0  0  0  0  0  0  0
   -6.0473    6.0066    4.6825 O   0  0  0  0  0  0  0  0  0  0  0  0
   -3.5259    6.2890    4.4156 O   0  0  0  0  0  0  0  0  0  0  0  0
   -3.6874    7.6227    3.9933 C   0  0  0  0  0  0  0  0  0  0  0  0
   -0.6221    7.7932    6.8704 O   0  0  0  0  0  0  0  0  0  0  0  0
   -0.5662    7.2041    4.4121 O   0  0  0  0  0  0  0  0  0  0  0  0
   -0.0553    8.5084    4.2681 C   0  0  0  0  0  0  0  0  0  0  0  0
   -9.8204   -4.2219    3.2162 H   0  0  0  0  0  0  0  0  0  0  0  0
   -9.7136   -2.5713    2.5485 H   0  0  0  0  0  0  0  0  0  0  0  0
   -8.5271   -3.1182    3.7657 H   0  0  0  0  0  0  0  0  0  0  0  0
   -3.4077    8.3174    4.7915 H   0  0  0  0  0  0  0  0  0  0  0  0
   -4.7260    7.7986    3.6977 H   0  0  0  0  0  0  0  0  0  0  0  0
   -3.0377    7.7561    3.1302 H   0  0  0  0  0  0  0  0  0  0  0  0
   -0.8103    9.1575    3.8180 H   0  0  0  0  0  0  0  0  0  0  0  0
    0.8117    8.4528    3.6123 H   0  0  0  0  0  0  0  0  0  0  0  0
    0.2297    8.9077    5.2461 H   0  0  0  0  0  0  0  0  0  0  0  0
   -2.1577   -4.6682   10.2942 H   0  0  0  0  0  0  0  0  0  0  0  0
   -2.5037   -3.3301    9.1612 H   0  0  0  0  0  0  0  0  0  0  0  0
   -0.8364   -3.6036    9.7412 H   0  0  0  0  0  0  0  0  0  0  0  0
    0.6456   -6.2871    5.0676 H   0  0  0  0  0  0  0  0  0  0  0  0
    2.0771   -5.6180    4.2323 H   0  0  0  0  0  0  0  0  0  0  0  0
    0.4431   -5.1743    3.6772 H   0  0  0  0  0  0  0  0  0  0  0  0
    8.7184    5.4660    9.7393 H   0  0  0  0  0  0  0  0  0  0  0  0
    7.0954    5.0186    9.1416 H   0  0  0  0  0  0  0  0  0  0  0  0
    8.2638    5.8128    8.0502 H   0  0  0  0  0  0  0  0  0  0  0  0
   -7.6514   -0.1784    2.1308 H   0  0  0  0  0  0  0  0  0  0  0  0
   -5.3611   -3.7842    2.0547 H   0  0  0  0  0  0  0  0  0  0  0  0
   -6.4289    3.4284    4.3775 H   0  0  0  0  0  0  0  0  0  0  0  0
   -2.1057   -4.5735    4.9861 H   0  0  0  0  0  0  0  0  0  0  0  0
   -2.3468    4.1879    5.2803 H   0  0  0  0  0  0  0  0  0  0  0  0
   -0.6522   -1.7123    7.7902 H   0  0  0  0  0  0  0  0  0  0  0  0
   -1.4077    4.1750    7.1321 H   0  0  0  0  0  0  0  0  0  0  0  0
    0.6390   -1.9716    5.2115 H   0  0  0  0  0  0  0  0  0  0  0  0
    4.1714   -2.2257    7.5914 H   0  0  0  0  0  0  0  0  0  0  0  0
    1.8410    6.3534    5.3889 H   0  0  0  0  0  0  0  0  0  0  0  0
    6.1290    4.9449    6.0538 H   0  0  0  0  0  0  0  0  0  0  0  0
    6.9731    1.2159    7.9633 H   0  0  0  0  0  0  0  0  0  0  0  0
  1  2  2  0  0  0  0
  1 96  1  0  0  0  0
  2  3  1  0  0  0  0
  3  4  2  0  0  0  0
  3  7  1  0  0  0  0
  4  5  1  0  0  0  0
  5  6  2  0  0  0  0
  5 99  1  0  0  0  0
  6  1  1  0  0  0  0
  6 24  1  0  0  0  0
  7  8  1  0  0  0  0
  7 11  2  0  0  0  0
  8  9  1  0  0  0  0
  9 10  2  0  0  0  0
 10  4  1  0  0  0  0
 11 12  1  0  0  0  0
 11 18  1  0  0  0  0
 12 13  2  0  0  0  0
 13 14  1  0  0  0  0
 14  8  1  0  0  0  0
 14 15  2  0  0  0  0
 15 16  1  0  0  0  0
 15101  1  0  0  0  0
 16 17  2  0  0  0  0
 16 26  1  0  0  0  0
 17  9  1  0  0  0  0
 17100  1  0  0  0  0
 18 19  2  0  0  0  0
 19 20  1  0  0  0  0
 19 97  1  0  0  0  0
 20 21  2  0  0  0  0
 20 25  1  0  0  0  0
 21 12  1  0  0  0  0
 21 98  1  0  0  0  0
 22  2  1  0  0  0  0
 23 18  1  0  0  0  0
 24 69  2  0  0  0  0
 24 70  1  0  0  0  0
 25 57  1  0  0  0  0
 25 59  2  0  0  0  0
 26 54  2  0  0  0  0
 26 55  1  0  0  0  0
 27 28  2  0  0  0  0
 27 95  1  0  0  0  0
 28 29  1  0  0  0  0
 28 48  1  0  0  0  0
 29 30  2  0  0  0  0
 29 33  1  0  0  0  0
 30 31  1  0  0  0  0
 31 32  2  0  0  0  0
 31 93  1  0  0  0  0
 32 27  1  0  0  0  0
 32 50  1  0  0  0  0
 33 37  2  0  0  0  0
 34 33  1  0  0  0  0
 34 35  1  0  0  0  0
 35 36  2  0  0  0  0
 36 30  1  0  0  0  0
 37 38  1  0  0  0  0
 37 44  1  0  0  0  0
 38 39  2  0  0  0  0
 39 40  1  0  0  0  0
 40 34  1  0  0  0  0
 40 41  2  0  0  0  0
 41 42  1  0  0  0  0
 41 90  1  0  0  0  0
 42 43  2  0  0  0  0
 42 52  1  0  0  0  0
 43 35  1  0  0  0  0
 43 91  1  0  0  0  0
 44 45  2  0  0  0  0
 44 49  1  0  0  0  0
 45 46  1  0  0  0  0
 45 94  1  0  0  0  0
 46 47  2  0  0  0  0
 46 51  1  0  0  0  0
 47 38  1  0  0  0  0
 47 92  1  0  0  0  0
 50 60  2  0  0  0  0
 50 61  1  0  0  0  0
 51 66  2  0  0  0  0
 51 67  1  0  0  0  0
 52 63  2  0  0  0  0
 52 64  1  0  0  0  0
 53 49  1  0  0  0  0
 53 22  1  0  0  0  0
 53 48  1  0  0  0  0
 53 23  1  0  0  0  0
 55 56  1  0  0  0  0
 56 87  1  0  0  0  0
 56 88  1  0  0  0  0
 56 89  1  0  0  0  0
 57 58  1  0  0  0  0
 58 84  1  0  0  0  0
 58 85  1  0  0  0  0
 58 86  1  0  0  0  0
 61 62  1  0  0  0  0
 62 81  1  0  0  0  0
 62 82  1  0  0  0  0
 62 83  1  0  0  0  0
 64 65  1  0  0  0  0
 65 72  1  0  0  0  0
 65 73  1  0  0  0  0
 65 74  1  0  0  0  0
 67 68  1  0  0  0  0
 68 75  1  0  0  0  0
 68 76  1  0  0  0  0
 68 77  1  0  0  0  0
 70 71  1  0  0  0  0
 71 78  1  0  0  0  0
 71 79  1  0  0  0  0
 71 80  1  0  0  0  0
102103  2  0  0  0  0
102197  1  0  0  0  0
103104  1  0  0  0  0
104105  2  0  0  0  0
104108  1  0  0  0  0
105106  1  0  0  0  0
106107  2  0  0  0  0
106200  1  0  0  0  0
107102  1  0  0  0  0
107125  1  0  0  0  0
108109  1  0  0  0  0
108112  2  0  0  0  0
109110  1  0  0  0  0
110111  2  0  0  0  0
111105  1  0  0  0  0
112113  1  0  0  0  0
112119  1  0  0  0  0
113114  2  0  0  0  0
114115  1  0  0  0  0
115109  1  0  0  0  0
115116  2  0  0  0  0
116117  1  0  0  0  0
116202  1  0  0  0  0
117118  2  0  0  0  0
117127  1  0  0  0  0
118110  1  0  0  0  0
118201  1  0  0  0  0
119120  2  0  0  0  0
120121  1  0  0  0  0
120198  1  0  0  0  0
121122  2  0  0  0  0
121126  1  0  0  0  0
122113  1  0  0  0  0
122199  1  0  0  0  0
123103  1  0  0  0  0
124119  1  0  0  0  0
125170  2  0  0  0  0
125171  1  0  0  0  0
126158  1  0  0  0  0
126160  2  0  0  0  0
127155  2  0  0  0  0
127156  1  0  0  0  0
128129  2  0  0  0  0
128196  1  0  0  0  0
129130  1  0  0  0  0
129149  1  0  0  0  0
130131  2  0  0  0  0
130134  1  0  0  0  0
131132  1  0  0  0  0
132133  2  0  0  0  0
132194  1  0  0  0  0
133128  1  0  0  0  0
133151  1  0  0  0  0
134138  2  0  0  0  0
135134  1  0  0  0  0
135136  1  0  0  0  0
136137  2  0  0  0  0
137131  1  0  0  0  0
138139  1  0  0  0  0
138145  1  0  0  0  0
139140  2  0  0  0  0
140141  1  0  0  0  0
141135  1  0  0  0  0
141142  2  0  0  0  0
142143  1  0  0  0  0
142191  1  0  0  0  0
143144  2  0  0  0  0
143153  1  0  0  0  0
144136  1  0  0  0  0
144192  1  0  0  0  0
145146  2  0  0  0  0
145150  1  0  0  0  0
146147  1  0  0  0  0
146195  1  0  0  0  0
147148  2  0  0  0  0
147152  1  0  0  0  0
148139  1  0  0  0  0
148193  1  0  0  0  0
151161  2  0  0  0  0
151162  1  0  0  0  0
152167  2  0  0  0  0
152168  1  0  0  0  0
153164  2  0  0  0  0
153165  1  0  0  0  0
154150  1  0  0  0  0
154123  1  0  0  0  0
154149  1  0  0  0  0
154124  1  0  0  0  0
156157  1  0  0  0  0
157188  1  0  0  0  0
157189  1  0  0  0  0
157190  1  0  0  0  0
158159  1  0  0  0  0
159185  1  0  0  0  0
159186  1  0  0  0  0
159187  1  0  0  0  0
162163  1  0  0  0  0
163182  1  0  0  0  0
163183  1  0  0  0  0
163184  1  0  0  0  0
165166  1  0  0  0  0
166173  1  0  0  0  0
166174  1  0  0  0  0
166175  1  0  0  0  0
168169  1  0  0  0  0
169176  1  0  0  0  0
169177  1  0  0  0  0
169178  1  0  0  0  0
171172  1  0  0  0  0
172179  1  0  0  0  0
172180  1  0  0  0  0
172181  1  0  0  0  0
M  CHG  1   1  -1
M  END
