 energy: -414.347426628225 gnorm: 0.000629153368 xtb: 6.7.1 (edcfbbe)
          12132412373D

202224  0     0  0            999 V2000
   -1.1697    4.2573    1.7105 C   0  0  0  0  0  0  0  0  0  0  0  0
   -0.4766    3.3079    2.4500 C   0  0  0  0  0  0  0  0  0  0  0  0
    0.9343    3.4037    2.5093 C   0  0  0  0  0  0  0  0  0  0  0  0
    1.5399    4.6092    2.0182 C   0  0  0  0  0  0  0  0  0  0  0  0
    0.8156    5.4928    1.2023 C   0  0  0  0  0  0  0  0  0  0  0  0
   -0.5242    5.2801    1.0323 C   0  0  0  0  0  0  0  0  0  0  0  0
    1.8197    2.4301    3.0884 C   0  0  0  0  0  0  0  0  0  0  0  0
    3.0416    2.9674    3.5520 C   0  0  0  0  0  0  0  0  0  0  0  0
    3.4388    4.3003    3.2284 C   0  0  0  0  0  0  0  0  0  0  0  0
    2.7736    5.0159    2.3727 N   0  0  0  0  0  0  0  0  0  0  0  0
    1.6378    1.0047    3.1906 C   0  0  0  0  0  0  0  0  0  0  0  0
    2.6622    0.3050    3.9093 C   0  0  0  0  0  0  0  0  0  0  0  0
    3.7179    0.9051    4.4979 N   0  0  0  0  0  0  0  0  0  0  0  0
    3.9185    2.1682    4.3145 C   0  0  0  0  0  0  0  0  0  0  0  0
    5.0065    2.7894    5.1657 C   0  0  0  0  0  0  0  0  0  0  0  0
    5.2787    4.2104    4.8169 C   0  0  0  0  0  0  0  0  0  0  0  0
    4.6098    4.8671    3.8674 C   0  0  0  0  0  0  0  0  0  0  0  0
    0.6437    0.1895    2.5579 C   0  0  0  0  0  0  0  0  0  0  0  0
    0.7333   -1.1980    2.6803 C   0  0  0  0  0  0  0  0  0  0  0  0
    1.6727   -1.8232    3.4833 C   0  0  0  0  0  0  0  0  0  0  0  0
    2.6350   -1.0797    4.0995 C   0  0  0  0  0  0  0  0  0  0  0  0
   -1.1494    2.3607    3.1477 O   0  0  0  0  0  0  0  0  0  0  0  0
   -0.3381    0.6406    1.7522 O   0  0  0  0  0  0  0  0  0  0  0  0
   -1.5079    6.4186   -0.0264 S   0  0  0  0  0  0  0  0  0  0  0  0
    1.6385   -3.6058    3.9242 S   0  0  0  0  0  0  0  0  0  0  0  0
    6.5926    5.0397    5.7853 S   0  0  0  0  0  0  0  0  0  0  0  0
   -2.1800   -1.9956    2.8544 C   0  0  0  0  0  0  0  0  0  0  0  0
   -2.7952   -0.8567    2.3420 C   0  0  0  0  0  0  0  0  0  0  0  0
   -3.7267   -1.0185    1.2591 C   0  0  0  0  0  0  0  0  0  0  0  0
   -3.8807   -2.3603    0.7319 C   0  0  0  0  0  0  0  0  0  0  0  0
   -3.0924   -3.4383    1.1990 C   0  0  0  0  0  0  0  0  0  0  0  0
   -2.2843   -3.2551    2.2783 C   0  0  0  0  0  0  0  0  0  0  0  0
   -4.6417   -0.0562    0.7071 C   0  0  0  0  0  0  0  0  0  0  0  0
   -5.6673   -0.5032   -0.1524 C   0  0  0  0  0  0  0  0  0  0  0  0
   -5.6656   -1.8419   -0.6266 C   0  0  0  0  0  0  0  0  0  0  0  0
   -4.7692   -2.7162   -0.1933 N   0  0  0  0  0  0  0  0  0  0  0  0
   -4.7264    1.3315    1.0388 C   0  0  0  0  0  0  0  0  0  0  0  0
   -6.0022    1.9855    0.8959 C   0  0  0  0  0  0  0  0  0  0  0  0
   -6.9413    1.5287    0.0887 N   0  0  0  0  0  0  0  0  0  0  0  0
   -6.7415    0.3617   -0.5261 C   0  0  0  0  0  0  0  0  0  0  0  0
   -7.6934   -0.0890   -1.4553 C   0  0  0  0  0  0  0  0  0  0  0  0
   -7.6125   -1.3684   -1.9732 C   0  0  0  0  0  0  0  0  0  0  0  0
   -6.6347   -2.2482   -1.5746 C   0  0  0  0  0  0  0  0  0  0  0  0
   -3.6333    2.0669    1.5315 C   0  0  0  0  0  0  0  0  0  0  0  0
   -3.9737    3.0884    2.4374 C   0  0  0  0  0  0  0  0  0  0  0  0
   -5.2249    3.6752    2.3777 C   0  0  0  0  0  0  0  0  0  0  0  0
   -6.2141    3.2207    1.5622 C   0  0  0  0  0  0  0  0  0  0  0  0
   -2.4694    0.2824    2.9876 O   0  0  0  0  0  0  0  0  0  0  0  0
   -2.4060    1.7172    1.1785 O   0  0  0  0  0  0  0  0  0  0  0  0
   -1.1677   -4.5913    2.8596 S   0  0  0  0  0  0  0  0  0  0  0  0
   -5.5983    5.0452    3.5868 S   0  0  0  0  0  0  0  0  0  0  0  0
   -8.8962   -1.9546   -3.1710 S   0  0  0  0  0  0  0  0  0  0  0  0
   -1.5529    1.2440    2.3029 B   0  0  0  0  0  0  0  0  0  0  0  0
    6.2201    4.8309    7.1720 O   0  0  0  0  0  0  0  0  0  0  0  0
    7.7063    3.8531    5.3871 O   0  0  0  0  0  0  0  0  0  0  0  0
    8.9011    3.8688    6.1430 C   0  0  0  0  0  0  0  0  0  0  0  0
    1.3068   -4.1464    2.3702 O   0  0  0  0  0  0  0  0  0  0  0  0
    2.3781   -4.0955    1.4537 C   0  0  0  0  0  0  0  0  0  0  0  0
    3.0432   -3.8782    4.1786 O   0  0  0  0  0  0  0  0  0  0  0  0
   -0.8291   -4.0912    4.1990 O   0  0  0  0  0  0  0  0  0  0  0  0
   -2.2747   -5.7978    3.0226 O   0  0  0  0  0  0  0  0  0  0  0  0
   -3.0886   -5.8800    4.1775 C   0  0  0  0  0  0  0  0  0  0  0  0
   -9.6522   -0.7602   -3.4793 O   0  0  0  0  0  0  0  0  0  0  0  0
   -9.7592   -2.8531   -2.0759 O   0  0  0  0  0  0  0  0  0  0  0  0
  -10.5977   -2.1442   -1.1896 C   0  0  0  0  0  0  0  0  0  0  0  0
   -6.6436    5.7742    2.9199 O   0  0  0  0  0  0  0  0  0  0  0  0
   -4.1871    5.8809    3.3886 O   0  0  0  0  0  0  0  0  0  0  0  0
   -4.1603    6.8112    2.3281 C   0  0  0  0  0  0  0  0  0  0  0  0
   -0.6628    6.6056   -1.1884 O   0  0  0  0  0  0  0  0  0  0  0  0
   -2.7243    5.3414   -0.4214 O   0  0  0  0  0  0  0  0  0  0  0  0
   -2.4136    4.3339   -1.3561 C   0  0  0  0  0  0  0  0  0  0  0  0
  -11.3927   -2.8236   -0.8872 H   0  0  0  0  0  0  0  0  0  0  0  0
  -11.0301   -1.2795   -1.7023 H   0  0  0  0  0  0  0  0  0  0  0  0
  -10.0332   -1.8074   -0.3174 H   0  0  0  0  0  0  0  0  0  0  0  0
   -3.4248    7.5751    2.5771 H   0  0  0  0  0  0  0  0  0  0  0  0
   -5.1499    7.2625    2.2175 H   0  0  0  0  0  0  0  0  0  0  0  0
   -3.8874    6.3160    1.3928 H   0  0  0  0  0  0  0  0  0  0  0  0
   -3.3178    4.1266   -1.9273 H   0  0  0  0  0  0  0  0  0  0  0  0
   -2.0777    3.4263   -0.8467 H   0  0  0  0  0  0  0  0  0  0  0  0
   -1.6291    4.6900   -2.0313 H   0  0  0  0  0  0  0  0  0  0  0  0
   -3.8612   -6.6157    3.9561 H   0  0  0  0  0  0  0  0  0  0  0  0
   -3.5391   -4.9127    4.4162 H   0  0  0  0  0  0  0  0  0  0  0  0
   -2.4867   -6.2156    5.0269 H   0  0  0  0  0  0  0  0  0  0  0  0
    3.3214   -4.2191    1.9937 H   0  0  0  0  0  0  0  0  0  0  0  0
    2.3848   -3.1374    0.9268 H   0  0  0  0  0  0  0  0  0  0  0  0
    2.2472   -4.9122    0.7451 H   0  0  0  0  0  0  0  0  0  0  0  0
    9.2658    2.8425    6.2062 H   0  0  0  0  0  0  0  0  0  0  0  0
    8.7053    4.2412    7.1527 H   0  0  0  0  0  0  0  0  0  0  0  0
    9.6514    4.4989    5.6604 H   0  0  0  0  0  0  0  0  0  0  0  0
   -8.5030    0.5632   -1.7460 H   0  0  0  0  0  0  0  0  0  0  0  0
   -6.5841   -3.2517   -1.9654 H   0  0  0  0  0  0  0  0  0  0  0  0
   -7.1320    3.7619    1.4120 H   0  0  0  0  0  0  0  0  0  0  0  0
   -3.2030   -4.3940    0.7150 H   0  0  0  0  0  0  0  0  0  0  0  0
   -3.2572    3.3916    3.1854 H   0  0  0  0  0  0  0  0  0  0  0  0
   -1.5553   -1.8635    3.7235 H   0  0  0  0  0  0  0  0  0  0  0  0
   -2.2401    4.1994    1.6301 H   0  0  0  0  0  0  0  0  0  0  0  0
    0.0360   -1.7912    2.1105 H   0  0  0  0  0  0  0  0  0  0  0  0
    3.4096   -1.5447    4.6870 H   0  0  0  0  0  0  0  0  0  0  0  0
    1.3229    6.3366    0.7658 H   0  0  0  0  0  0  0  0  0  0  0  0
    4.8531    5.8823    3.5951 H   0  0  0  0  0  0  0  0  0  0  0  0
    5.9410    2.2270    5.0564 H   0  0  0  0  0  0  0  0  0  0  0  0
    0.6342    3.7360    7.4267 C   0  0  0  0  0  0  0  0  0  0  0  0
    0.9581    2.3892    7.5626 C   0  0  0  0  0  0  0  0  0  0  0  0
    2.2436    1.9213    7.2044 C   0  0  0  0  0  0  0  0  0  0  0  0
    3.1978    2.8907    6.7967 C   0  0  0  0  0  0  0  0  0  0  0  0
    2.8353    4.2218    6.6268 C   0  0  0  0  0  0  0  0  0  0  0  0
    1.5521    4.6278    6.9183 C   0  0  0  0  0  0  0  0  0  0  0  0
    2.6634    0.5360    7.2866 C   0  0  0  0  0  0  0  0  0  0  0  0
    4.0537    0.3711    7.4948 C   0  0  0  0  0  0  0  0  0  0  0  0
    4.9743    1.3851    7.1378 C   0  0  0  0  0  0  0  0  0  0  0  0
    4.5110    2.5279    6.5271 N   0  0  0  0  0  0  0  0  0  0  0  0
    1.8988   -0.6604    7.1569 C   0  0  0  0  0  0  0  0  0  0  0  0
    2.5411   -1.8905    7.5665 C   0  0  0  0  0  0  0  0  0  0  0  0
    3.7777   -1.9487    8.0427 N   0  0  0  0  0  0  0  0  0  0  0  0
    4.5629   -0.8835    7.9493 C   0  0  0  0  0  0  0  0  0  0  0  0
    5.9432   -1.0159    8.2210 C   0  0  0  0  0  0  0  0  0  0  0  0
    6.7940    0.0116    7.9045 C   0  0  0  0  0  0  0  0  0  0  0  0
    6.3343    1.1862    7.3234 C   0  0  0  0  0  0  0  0  0  0  0  0
    0.6271   -0.7978    6.5188 C   0  0  0  0  0  0  0  0  0  0  0  0
    0.1581   -2.0738    6.2098 C   0  0  0  0  0  0  0  0  0  0  0  0
    0.7587   -3.2362    6.6729 C   0  0  0  0  0  0  0  0  0  0  0  0
    1.8933   -3.1479    7.4252 C   0  0  0  0  0  0  0  0  0  0  0  0
    0.0417    1.5588    8.0587 O   0  0  0  0  0  0  0  0  0  0  0  0
   -0.1281    0.2125    6.1076 O   0  0  0  0  0  0  0  0  0  0  0  0
    1.0951    6.3771    6.5893 S   0  0  0  0  0  0  0  0  0  0  0  0
   -0.1988   -4.7690    6.3887 S   0  0  0  0  0  0  0  0  0  0  0  0
    8.5954   -0.1613    8.2430 S   0  0  0  0  0  0  0  0  0  0  0  0
   -1.7459   -1.9329    8.3845 C   0  0  0  0  0  0  0  0  0  0  0  0
   -2.2556   -0.9122    7.5818 C   0  0  0  0  0  0  0  0  0  0  0  0
   -3.0963   -1.1900    6.4744 C   0  0  0  0  0  0  0  0  0  0  0  0
   -3.3110   -2.5919    6.2092 C   0  0  0  0  0  0  0  0  0  0  0  0
   -2.7948   -3.6030    7.0677 C   0  0  0  0  0  0  0  0  0  0  0  0
   -2.0360   -3.2665    8.1496 C   0  0  0  0  0  0  0  0  0  0  0  0
   -3.8124   -0.2138    5.6823 C   0  0  0  0  0  0  0  0  0  0  0  0
   -4.7302   -0.7761    4.7578 C   0  0  0  0  0  0  0  0  0  0  0  0
   -4.7334   -2.1738    4.4700 C   0  0  0  0  0  0  0  0  0  0  0  0
   -4.0293   -3.0423    5.1864 N   0  0  0  0  0  0  0  0  0  0  0  0
   -3.8596    1.2337    5.8133 C   0  0  0  0  0  0  0  0  0  0  0  0
   -5.1072    1.8320    5.3759 C   0  0  0  0  0  0  0  0  0  0  0  0
   -5.9626    1.2565    4.5408 N   0  0  0  0  0  0  0  0  0  0  0  0
   -5.7236    0.0224    4.1207 C   0  0  0  0  0  0  0  0  0  0  0  0
   -6.5534   -0.5258    3.1192 C   0  0  0  0  0  0  0  0  0  0  0  0
   -6.4226   -1.8507    2.7706 C   0  0  0  0  0  0  0  0  0  0  0  0
   -5.5427   -2.6805    3.4300 C   0  0  0  0  0  0  0  0  0  0  0  0
   -2.8840    2.1925    6.2407 C   0  0  0  0  0  0  0  0  0  0  0  0
   -3.2784    3.5112    6.5157 C   0  0  0  0  0  0  0  0  0  0  0  0
   -4.5679    3.9711    6.3290 C   0  0  0  0  0  0  0  0  0  0  0  0
   -5.4901    3.1443    5.7532 C   0  0  0  0  0  0  0  0  0  0  0  0
   -1.8916    0.3232    7.8966 O   0  0  0  0  0  0  0  0  0  0  0  0
   -1.5720    2.0358    6.3164 O   0  0  0  0  0  0  0  0  0  0  0  0
   -1.4194   -4.4898    9.4013 S   0  0  0  0  0  0  0  0  0  0  0  0
   -5.0326    5.6849    6.7324 S   0  0  0  0  0  0  0  0  0  0  0  0
   -7.5017   -2.5967    1.4909 S   0  0  0  0  0  0  0  0  0  0  0  0
   -0.9042    1.0190    7.0879 B   0  0  0  0  0  0  0  0  0  0  0  0
    9.1932    0.9004    7.4528 O   0  0  0  0  0  0  0  0  0  0  0  0
    8.5223    0.3603    9.8237 O   0  0  0  0  0  0  0  0  0  0  0  0
    8.3372    1.7375   10.0364 C   0  0  0  0  0  0  0  0  0  0  0  0
    0.8791   -5.6344    5.5029 O   0  0  0  0  0  0  0  0  0  0  0  0
    1.9904   -6.2359    6.1406 C   0  0  0  0  0  0  0  0  0  0  0  0
   -0.1727   -5.3821    7.7365 O   0  0  0  0  0  0  0  0  0  0  0  0
   -0.3084   -3.7900   10.0016 O   0  0  0  0  0  0  0  0  0  0  0  0
   -2.7439   -4.1943   10.4216 O   0  0  0  0  0  0  0  0  0  0  0  0
   -2.7024   -3.0875   11.2790 C   0  0  0  0  0  0  0  0  0  0  0  0
   -8.3595   -1.4945    1.0899 O   0  0  0  0  0  0  0  0  0  0  0  0
   -8.3704   -3.5430    2.5429 O   0  0  0  0  0  0  0  0  0  0  0  0
   -9.2811   -2.8803    3.3837 C   0  0  0  0  0  0  0  0  0  0  0  0
   -5.9392    6.0637    5.6436 O   0  0  0  0  0  0  0  0  0  0  0  0
   -3.5297    6.2679    6.3876 O   0  0  0  0  0  0  0  0  0  0  0  0
   -3.4251    7.6695    6.2599 C   0  0  0  0  0  0  0  0  0  0  0  0
    1.8926    6.6913    5.4172 O   0  0  0  0  0  0  0  0  0  0  0  0
   -0.4738    6.0958    6.1129 O   0  0  0  0  0  0  0  0  0  0  0  0
   -0.6793    5.4344    4.8852 C   0  0  0  0  0  0  0  0  0  0  0  0
  -10.0873   -3.5766    3.6093 H   0  0  0  0  0  0  0  0  0  0  0  0
   -9.6883   -2.0030    2.8714 H   0  0  0  0  0  0  0  0  0  0  0  0
   -8.7922   -2.5651    4.3104 H   0  0  0  0  0  0  0  0  0  0  0  0
   -2.4012    7.8702    5.9498 H   0  0  0  0  0  0  0  0  0  0  0  0
   -3.6227    8.1671    7.2130 H   0  0  0  0  0  0  0  0  0  0  0  0
   -4.1263    8.0342    5.5052 H   0  0  0  0  0  0  0  0  0  0  0  0
   -1.6769    5.6987    4.5363 H   0  0  0  0  0  0  0  0  0  0  0  0
   -0.6109    4.3503    5.0109 H   0  0  0  0  0  0  0  0  0  0  0  0
    0.0682    5.7691    4.1585 H   0  0  0  0  0  0  0  0  0  0  0  0
   -3.2401   -3.3450   12.1921 H   0  0  0  0  0  0  0  0  0  0  0  0
   -3.1727   -2.2172   10.8077 H   0  0  0  0  0  0  0  0  0  0  0  0
   -1.6625   -2.8482   11.5219 H   0  0  0  0  0  0  0  0  0  0  0  0
    1.7830   -6.3395    7.2089 H   0  0  0  0  0  0  0  0  0  0  0  0
    2.8785   -5.6248    5.9688 H   0  0  0  0  0  0  0  0  0  0  0  0
    2.1252   -7.2222    5.6961 H   0  0  0  0  0  0  0  0  0  0  0  0
    8.7541    1.9746   11.0138 H   0  0  0  0  0  0  0  0  0  0  0  0
    7.2743    1.9962   10.0141 H   0  0  0  0  0  0  0  0  0  0  0  0
    8.8666    2.3086    9.2667 H   0  0  0  0  0  0  0  0  0  0  0  0
   -7.3054    0.0945    2.6560 H   0  0  0  0  0  0  0  0  0  0  0  0
   -5.4976   -3.7334    3.2019 H   0  0  0  0  0  0  0  0  0  0  0  0
   -6.4951    3.4583    5.5261 H   0  0  0  0  0  0  0  0  0  0  0  0
   -3.0781   -4.6210    6.8620 H   0  0  0  0  0  0  0  0  0  0  0  0
   -2.5130    4.1884    6.8545 H   0  0  0  0  0  0  0  0  0  0  0  0
   -1.0800   -1.6575    9.1884 H   0  0  0  0  0  0  0  0  0  0  0  0
   -0.3595    4.0495    7.7007 H   0  0  0  0  0  0  0  0  0  0  0  0
   -0.7389   -2.1541    5.6194 H   0  0  0  0  0  0  0  0  0  0  0  0
    2.3616   -4.0041    7.8781 H   0  0  0  0  0  0  0  0  0  0  0  0
    3.5576    4.9503    6.3021 H   0  0  0  0  0  0  0  0  0  0  0  0
    7.0479    1.9429    7.0384 H   0  0  0  0  0  0  0  0  0  0  0  0
    6.3025   -1.9471    8.6267 H   0  0  0  0  0  0  0  0  0  0  0  0
  1  2  1  0  0  0  0
  1  6  1  0  0  0  0
  1 96  1  0  0  0  0
  2  3  2  0  0  0  0
  2 22  1  0  0  0  0
  3  7  1  0  0  0  0
  4  3  1  0  0  0  0
  4  5  1  0  0  0  0
  4 10  1  0  0  0  0
  5  6  2  0  0  0  0
  5 99  1  0  0  0  0
  6 24  1  0  0  0  0
  7  8  1  0  0  0  0
  7 11  2  0  0  0  0
  8  9  1  0  0  0  0
  8 14  1  0  0  0  0
  9 10  2  0  0  0  0
  9 17  1  0  0  0  0
 11 12  1  0  0  0  0
 11 18  1  0  0  0  0
 12 13  2  0  0  0  0
 12 21  1  0  0  0  0
 13 14  1  0  0  0  0
 14 15  2  0  0  0  0
 15 16  1  0  0  0  0
 15101  1  0  0  0  0
 16 17  2  0  0  0  0
 16 26  1  0  0  0  0
 17100  1  0  0  0  0
 18 19  2  0  0  0  0
 18 23  1  0  0  0  0
 19 20  1  0  0  0  0
 19 97  1  0  0  0  0
 20 21  2  0  0  0  0
 20 25  1  0  0  0  0
 21 98  1  0  0  0  0
 23 53  1  0  0  0  0
 24 69  2  0  0  0  0
 24 70  1  0  0  0  0
 25 57  1  0  0  0  0
 25 59  2  0  0  0  0
 26 54  2  0  0  0  0
 26 55  1  0  0  0  0
 27 28  1  0  0  0  0
 27 32  1  0  0  0  0
 27 95  1  0  0  0  0
 28 29  2  0  0  0  0
 28 48  1  0  0  0  0
 29 33  1  0  0  0  0
 30 29  1  0  0  0  0
 30 31  1  0  0  0  0
 30 36  1  0  0  0  0
 31 32  2  0  0  0  0
 31 93  1  0  0  0  0
 32 50  1  0  0  0  0
 33 34  2  0  0  0  0
 34 35  1  0  0  0  0
 34 40  1  0  0  0  0
 35 36  2  0  0  0  0
 35 43  1  0  0  0  0
 37 33  1  0  0  0  0
 37 38  1  0  0  0  0
 37 44  1  0  0  0  0
 38 39  2  0  0  0  0
 38 47  1  0  0  0  0
 39 40  1  0  0  0  0
 40 41  2  0  0  0  0
 41 42  1  0  0  0  0
 41 90  1  0  0  0  0
 42 43  2  0  0  0  0
 42 52  1  0  0  0  0
 43 91  1  0  0  0  0
 44 45  2  0  0  0  0
 44 49  1  0  0  0  0
 45 46  1  0  0  0  0
 45 94  1  0  0  0  0
 46 47  2  0  0  0  0
 46 51  1  0  0  0  0
 47 92  1  0  0  0  0
 48 53  1  0  0  0  0
 49 53  1  0  0  0  0
 50 60  2  0  0  0  0
 50 61  1  0  0  0  0
 51 66  2  0  0  0  0
 51 67  1  0  0  0  0
 52 63  2  0  0  0  0
 52 64  1  0  0  0  0
 53 22  1  0  0  0  0
 55 56  1  0  0  0  0
 56 87  1  0  0  0  0
 56 88  1  0  0  0  0
 56 89  1  0  0  0  0
 57 58  1  0  0  0  0
 58 84  1  0  0  0  0
 58 85  1  0  0  0  0
 58 86  1  0  0  0  0
 61 62  1  0  0  0  0
 62 81  1  0  0  0  0
 62 82  1  0  0  0  0
 62 83  1  0  0  0  0
 64 65  1  0  0  0  0
 65 72  1  0  0  0  0
 65 73  1  0  0  0  0
 65 74  1  0  0  0  0
 67 68  1  0  0  0  0
 68 75  1  0  0  0  0
 68 76  1  0  0  0  0
 68 77  1  0  0  0  0
 70 71  1  0  0  0  0
 71 78  1  0  0  0  0
 71 79  1  0  0  0  0
 71 80  1  0  0  0  0
102103  1  0  0  0  0
102107  1  0  0  0  0
102197  1  0  0  0  0
103104  2  0  0  0  0
103123  1  0  0  0  0
104108  1  0  0  0  0
105104  1  0  0  0  0
105106  1  0  0  0  0
105111  1  0  0  0  0
106107  2  0  0  0  0
106200  1  0  0  0  0
107125  1  0  0  0  0
108109  1  0  0  0  0
108112  2  0  0  0  0
109110  1  0  0  0  0
109115  1  0  0  0  0
110111  2  0  0  0  0
110118  1  0  0  0  0
112113  1  0  0  0  0
112119  1  0  0  0  0
113114  2  0  0  0  0
113122  1  0  0  0  0
114115  1  0  0  0  0
115116  2  0  0  0  0
116117  1  0  0  0  0
116202  1  0  0  0  0
117118  2  0  0  0  0
117127  1  0  0  0  0
118201  1  0  0  0  0
119120  2  0  0  0  0
119124  1  0  0  0  0
120121  1  0  0  0  0
120198  1  0  0  0  0
121122  2  0  0  0  0
121126  1  0  0  0  0
122199  1  0  0  0  0
124154  1  0  0  0  0
125170  2  0  0  0  0
125171  1  0  0  0  0
126158  1  0  0  0  0
126160  2  0  0  0  0
127155  2  0  0  0  0
127156  1  0  0  0  0
128129  1  0  0  0  0
128133  1  0  0  0  0
128196  1  0  0  0  0
129130  2  0  0  0  0
129149  1  0  0  0  0
130134  1  0  0  0  0
131130  1  0  0  0  0
131132  1  0  0  0  0
131137  1  0  0  0  0
132133  2  0  0  0  0
132194  1  0  0  0  0
133151  1  0  0  0  0
134135  2  0  0  0  0
135136  1  0  0  0  0
135141  1  0  0  0  0
136137  2  0  0  0  0
136144  1  0  0  0  0
138134  1  0  0  0  0
138139  1  0  0  0  0
138145  1  0  0  0  0
139140  2  0  0  0  0
139148  1  0  0  0  0
140141  1  0  0  0  0
141142  2  0  0  0  0
142143  1  0  0  0  0
142191  1  0  0  0  0
143144  2  0  0  0  0
143153  1  0  0  0  0
144192  1  0  0  0  0
145146  2  0  0  0  0
145150  1  0  0  0  0
146147  1  0  0  0  0
146195  1  0  0  0  0
147148  2  0  0  0  0
147152  1  0  0  0  0
148193  1  0  0  0  0
149154  1  0  0  0  0
150154  1  0  0  0  0
151161  2  0  0  0  0
151162  1  0  0  0  0
152167  2  0  0  0  0
152168  1  0  0  0  0
153164  2  0  0  0  0
153165  1  0  0  0  0
154123  1  0  0  0  0
156157  1  0  0  0  0
157188  1  0  0  0  0
157189  1  0  0  0  0
157190  1  0  0  0  0
158159  1  0  0  0  0
159185  1  0  0  0  0
159186  1  0  0  0  0
159187  1  0  0  0  0
162163  1  0  0  0  0
163182  1  0  0  0  0
163183  1  0  0  0  0
163184  1  0  0  0  0
165166  1  0  0  0  0
166173  1  0  0  0  0
166174  1  0  0  0  0
166175  1  0  0  0  0
168169  1  0  0  0  0
169176  1  0  0  0  0
169177  1  0  0  0  0
169178  1  0  0  0  0
171172  1  0  0  0  0
172179  1  0  0  0  0
172180  1  0  0  0  0
172181  1  0  0  0  0
M  CHG  1   8   1
M  CHG  1  53  -1
M  CHG  1 109   1
M  CHG  1 154  -1
M  END
