 energy: -332.345272001429 gnorm: 0.000105743576 xtb: 6.7.1 (edcfbbe)
          03032515073D

150158  0     0  0            999 V2000
   -1.5014    4.5715   -1.5376 C   0  0  0  0  0  0  0  0  0  0  0  0
    1.0155   -0.9017    2.5088 C   0  0  0  0  0  0  0  0  0  0  0  0
   -4.3895    0.5490   -2.6152 C   0  0  0  0  0  0  0  0  0  0  0  0
   -3.5283    0.1331   -1.6075 C   0  0  0  0  0  0  0  0  0  0  0  0
   -2.7625    1.0967   -0.8944 C   0  0  0  0  0  0  0  0  0  0  0  0
   -2.6521    2.4161   -1.4004 C   0  0  0  0  0  0  0  0  0  0  0  0
   -3.5812    2.8298   -2.3647 C   0  0  0  0  0  0  0  0  0  0  0  0
   -4.4313    1.8944   -2.8978 C   0  0  0  0  0  0  0  0  0  0  0  0
   -2.0612    0.7689    0.3015 C   0  0  0  0  0  0  0  0  0  0  0  0
   -0.9491    1.5829    0.6452 C   0  0  0  0  0  0  0  0  0  0  0  0
   -0.7636    2.8394    0.0175 C   0  0  0  0  0  0  0  0  0  0  0  0
   -1.6495    3.2495   -0.9532 N   0  0  0  0  0  0  0  0  0  0  0  0
   -2.4235   -0.2621    1.2246 C   0  0  0  0  0  0  0  0  0  0  0  0
   -1.4249   -0.7659    2.0913 C   0  0  0  0  0  0  0  0  0  0  0  0
   -0.1777   -0.1759    2.1032 N   0  0  0  0  0  0  0  0  0  0  0  0
   -0.0365    1.1113    1.6124 C   0  0  0  0  0  0  0  0  0  0  0  0
    1.0007    1.9364    2.0388 C   0  0  0  0  0  0  0  0  0  0  0  0
    1.1255    3.1619    1.4338 C   0  0  0  0  0  0  0  0  0  0  0  0
    0.3156    3.6279    0.4287 C   0  0  0  0  0  0  0  0  0  0  0  0
   -3.7541   -0.7503    1.3517 C   0  0  0  0  0  0  0  0  0  0  0  0
   -4.0161   -1.8492    2.1665 C   0  0  0  0  0  0  0  0  0  0  0  0
   -2.9840   -2.3696    2.9097 C   0  0  0  0  0  0  0  0  0  0  0  0
   -1.7168   -1.8410    2.9340 C   0  0  0  0  0  0  0  0  0  0  0  0
   -4.7201   -0.0667    0.7067 O   0  0  0  0  0  0  0  0  0  0  0  0
   -3.3167   -1.1606   -1.2886 O   0  0  0  0  0  0  0  0  0  0  0  0
   -5.0266   -0.1262   -3.1554 H   0  0  0  0  0  0  0  0  0  0  0  0
   -3.6878    3.8484   -2.6836 H   0  0  0  0  0  0  0  0  0  0  0  0
   -4.9967   -2.2802    2.2444 H   0  0  0  0  0  0  0  0  0  0  0  0
   -0.9860   -2.2509    3.6023 H   0  0  0  0  0  0  0  0  0  0  0  0
    1.6796    1.6469    2.8170 H   0  0  0  0  0  0  0  0  0  0  0  0
    0.5134    4.6088    0.0438 H   0  0  0  0  0  0  0  0  0  0  0  0
    2.0506   -0.9634    1.3785 C   0  0  0  0  0  0  0  0  0  0  0  0
    3.1641   -1.9441    1.7271 C   0  0  0  0  0  0  0  0  0  0  0  0
   -2.2191    5.6413   -0.7112 C   0  0  0  0  0  0  0  0  0  0  0  0
   -2.0594    7.0169   -1.3448 C   0  0  0  0  0  0  0  0  0  0  0  0
   -6.0377   -0.5802    0.6701 C   0  0  0  0  0  0  0  0  0  0  0  0
   -3.9632   -2.1621   -2.0480 C   0  0  0  0  0  0  0  0  0  0  0  0
   -5.7097    2.4711   -4.0744 S   0  0  0  0  0  0  0  0  0  0  0  0
   -4.6403    3.4410   -4.9018 F   0  0  0  0  0  0  0  0  0  0  0  0
   -5.4105    1.2268   -5.1397 F   0  0  0  0  0  0  0  0  0  0  0  0
   -6.1257    3.7630   -3.1162 F   0  0  0  0  0  0  0  0  0  0  0  0
   -6.8454    2.9701   -5.1057 F   0  0  0  0  0  0  0  0  0  0  0  0
   -6.8915    1.5467   -3.3461 F   0  0  0  0  0  0  0  0  0  0  0  0
   -3.3024   -3.8769    3.9095 S   0  0  0  0  0  0  0  0  0  0  0  0
   -4.5411   -4.4056    2.9409 F   0  0  0  0  0  0  0  0  0  0  0  0
   -4.3905   -3.1081    4.9085 F   0  0  0  0  0  0  0  0  0  0  0  0
   -3.5239   -5.2050    4.7982 F   0  0  0  0  0  0  0  0  0  0  0  0
   -2.2133   -4.7662    3.0076 F   0  0  0  0  0  0  0  0  0  0  0  0
   -2.0630   -3.5270    4.9814 F   0  0  0  0  0  0  0  0  0  0  0  0
    2.4265    4.2848    2.0641 S   0  0  0  0  0  0  0  0  0  0  0  0
    3.4854    3.0123    2.3168 F   0  0  0  0  0  0  0  0  0  0  0  0
    3.0685    4.5167    0.5476 F   0  0  0  0  0  0  0  0  0  0  0  0
    3.6066    5.2284    2.6382 F   0  0  0  0  0  0  0  0  0  0  0  0
    1.5380    5.6592    1.8823 F   0  0  0  0  0  0  0  0  0  0  0  0
    1.9178    4.1116    3.6482 F   0  0  0  0  0  0  0  0  0  0  0  0
    0.7324   -1.9238    2.7492 H   0  0  0  0  0  0  0  0  0  0  0  0
    1.4577   -0.4568    3.4033 H   0  0  0  0  0  0  0  0  0  0  0  0
    2.4770    0.0228    1.1963 H   0  0  0  0  0  0  0  0  0  0  0  0
    1.5480   -1.2870    0.4647 H   0  0  0  0  0  0  0  0  0  0  0  0
    3.6652   -1.6548    2.6454 H   0  0  0  0  0  0  0  0  0  0  0  0
    3.9008   -1.9684    0.9296 H   0  0  0  0  0  0  0  0  0  0  0  0
    2.7688   -2.9479    1.8588 H   0  0  0  0  0  0  0  0  0  0  0  0
   -3.6274   -3.1065   -1.6231 H   0  0  0  0  0  0  0  0  0  0  0  0
   -3.6728   -2.1083   -3.1006 H   0  0  0  0  0  0  0  0  0  0  0  0
   -5.0510   -2.0923   -1.9701 H   0  0  0  0  0  0  0  0  0  0  0  0
   -6.5777    0.0688   -0.0184 H   0  0  0  0  0  0  0  0  0  0  0  0
   -6.5138   -0.5435    1.6540 H   0  0  0  0  0  0  0  0  0  0  0  0
   -6.0568   -1.6079    0.3002 H   0  0  0  0  0  0  0  0  0  0  0  0
   -1.8890    4.5524   -2.5564 H   0  0  0  0  0  0  0  0  0  0  0  0
   -0.4393    4.8060   -1.6171 H   0  0  0  0  0  0  0  0  0  0  0  0
   -1.8138    5.6494    0.3003 H   0  0  0  0  0  0  0  0  0  0  0  0
   -3.2768    5.3865   -0.6369 H   0  0  0  0  0  0  0  0  0  0  0  0
   -1.0093    7.2919   -1.4065 H   0  0  0  0  0  0  0  0  0  0  0  0
   -2.5711    7.7621   -0.7439 H   0  0  0  0  0  0  0  0  0  0  0  0
   -2.4814    7.0334   -2.3473 H   0  0  0  0  0  0  0  0  0  0  0  0
    1.7387    1.9244    5.9968 C   0  0  0  0  0  0  0  0  0  0  0  0
   -0.7728   -4.5618    8.0640 C   0  0  0  0  0  0  0  0  0  0  0  0
   -3.1218    1.8919    4.2739 C   0  0  0  0  0  0  0  0  0  0  0  0
   -2.9313    0.7043    4.9722 C   0  0  0  0  0  0  0  0  0  0  0  0
   -1.6980    0.4671    5.6388 C   0  0  0  0  0  0  0  0  0  0  0  0
   -0.6027    1.3343    5.3990 C   0  0  0  0  0  0  0  0  0  0  0  0
   -0.8162    2.5298    4.7022 C   0  0  0  0  0  0  0  0  0  0  0  0
   -2.0727    2.7756    4.2078 C   0  0  0  0  0  0  0  0  0  0  0  0
   -1.4978   -0.6625    6.4962 C   0  0  0  0  0  0  0  0  0  0  0  0
   -0.1785   -1.1793    6.5713 C   0  0  0  0  0  0  0  0  0  0  0  0
    0.8983   -0.3556    6.1706 C   0  0  0  0  0  0  0  0  0  0  0  0
    0.6533    0.9685    5.8404 N   0  0  0  0  0  0  0  0  0  0  0  0
   -2.5241   -1.3735    7.1813 C   0  0  0  0  0  0  0  0  0  0  0  0
   -2.2956   -2.7275    7.5265 C   0  0  0  0  0  0  0  0  0  0  0  0
   -1.0136   -3.2366    7.5206 N   0  0  0  0  0  0  0  0  0  0  0  0
    0.0411   -2.4992    7.0414 C   0  0  0  0  0  0  0  0  0  0  0  0
    1.3424   -3.0112    6.9835 C   0  0  0  0  0  0  0  0  0  0  0  0
    2.3484   -2.1946    6.5277 C   0  0  0  0  0  0  0  0  0  0  0  0
    2.1885   -0.8852    6.1446 C   0  0  0  0  0  0  0  0  0  0  0  0
   -3.7621   -0.7688    7.5320 C   0  0  0  0  0  0  0  0  0  0  0  0
   -4.8388   -1.5737    7.8770 C   0  0  0  0  0  0  0  0  0  0  0  0
   -4.6299   -2.9328    7.9191 C   0  0  0  0  0  0  0  0  0  0  0  0
   -3.4003   -3.5312    7.8297 C   0  0  0  0  0  0  0  0  0  0  0  0
   -3.7957    0.5811    7.5464 O   0  0  0  0  0  0  0  0  0  0  0  0
   -3.8495   -0.2787    5.0061 O   0  0  0  0  0  0  0  0  0  0  0  0
   -4.0491    2.1317    3.7894 H   0  0  0  0  0  0  0  0  0  0  0  0
   -0.0461    3.2562    4.5325 H   0  0  0  0  0  0  0  0  0  0  0  0
   -5.8212   -1.1829    8.0668 H   0  0  0  0  0  0  0  0  0  0  0  0
   -3.3418   -4.5992    7.9127 H   0  0  0  0  0  0  0  0  0  0  0  0
    1.5924   -4.0167    7.2605 H   0  0  0  0  0  0  0  0  0  0  0  0
    3.0462   -0.3220    5.8292 H   0  0  0  0  0  0  0  0  0  0  0  0
   -0.7898   -5.6610    6.9978 C   0  0  0  0  0  0  0  0  0  0  0  0
   -0.5327   -7.0234    7.6292 C   0  0  0  0  0  0  0  0  0  0  0  0
    2.2102    2.0111    7.4522 C   0  0  0  0  0  0  0  0  0  0  0  0
    3.3298    3.0369    7.5778 C   0  0  0  0  0  0  0  0  0  0  0  0
   -4.9381    1.2215    8.0787 C   0  0  0  0  0  0  0  0  0  0  0  0
   -5.1699   -0.0013    4.5845 C   0  0  0  0  0  0  0  0  0  0  0  0
   -2.3959    4.3919    3.4119 S   0  0  0  0  0  0  0  0  0  0  0  0
   -1.9154    5.2563    4.7400 F   0  0  0  0  0  0  0  0  0  0  0  0
   -0.8607    4.5007    2.7752 F   0  0  0  0  0  0  0  0  0  0  0  0
   -3.9780    4.4520    3.9365 F   0  0  0  0  0  0  0  0  0  0  0  0
   -2.6936    5.7991    2.6718 F   0  0  0  0  0  0  0  0  0  0  0  0
   -2.9020    3.6501    1.9882 F   0  0  0  0  0  0  0  0  0  0  0  0
   -6.1015   -4.0049    8.0470 S   0  0  0  0  0  0  0  0  0  0  0  0
   -6.9387   -3.1276    6.9055 F   0  0  0  0  0  0  0  0  0  0  0  0
   -6.7791   -3.0468    9.2405 F   0  0  0  0  0  0  0  0  0  0  0  0
   -7.4216   -4.9292    8.1880 F   0  0  0  0  0  0  0  0  0  0  0  0
   -5.5801   -5.0640    6.8986 F   0  0  0  0  0  0  0  0  0  0  0  0
   -5.4076   -4.9595    9.2255 F   0  0  0  0  0  0  0  0  0  0  0  0
    4.0373   -2.8945    6.4358 S   0  0  0  0  0  0  0  0  0  0  0  0
    4.3321   -2.1714    4.9626 F   0  0  0  0  0  0  0  0  0  0  0  0
    4.7081   -1.5796    7.2010 F   0  0  0  0  0  0  0  0  0  0  0  0
    5.5244   -3.5073    6.3413 F   0  0  0  0  0  0  0  0  0  0  0  0
    3.8914   -3.6770    7.8950 F   0  0  0  0  0  0  0  0  0  0  0  0
    3.5054   -4.2621    5.6533 F   0  0  0  0  0  0  0  0  0  0  0  0
   -1.5330   -4.7643    8.8199 H   0  0  0  0  0  0  0  0  0  0  0  0
    0.1907   -4.5522    8.5792 H   0  0  0  0  0  0  0  0  0  0  0  0
   -0.0281   -5.4505    6.2464 H   0  0  0  0  0  0  0  0  0  0  0  0
   -1.7539   -5.6624    6.4912 H   0  0  0  0  0  0  0  0  0  0  0  0
    0.4382   -7.0458    8.1196 H   0  0  0  0  0  0  0  0  0  0  0  0
   -0.5491   -7.7965    6.8672 H   0  0  0  0  0  0  0  0  0  0  0  0
   -1.2973   -7.2556    8.3665 H   0  0  0  0  0  0  0  0  0  0  0  0
   -5.7337   -0.9026    4.8207 H   0  0  0  0  0  0  0  0  0  0  0  0
   -5.2078    0.2002    3.5121 H   0  0  0  0  0  0  0  0  0  0  0  0
   -5.5831    0.8556    5.1225 H   0  0  0  0  0  0  0  0  0  0  0  0
   -4.7114    2.2860    8.0477 H   0  0  0  0  0  0  0  0  0  0  0  0
   -5.1164    0.9116    9.1118 H   0  0  0  0  0  0  0  0  0  0  0  0
   -5.8338    1.0221    7.4855 H   0  0  0  0  0  0  0  0  0  0  0  0
    1.3988    2.9105    5.6983 H   0  0  0  0  0  0  0  0  0  0  0  0
    2.5775    1.6634    5.3462 H   0  0  0  0  0  0  0  0  0  0  0  0
    2.5658    1.0403    7.7994 H   0  0  0  0  0  0  0  0  0  0  0  0
    1.3651    2.3046    8.0776 H   0  0  0  0  0  0  0  0  0  0  0  0
    4.1891    2.7356    6.9849 H   0  0  0  0  0  0  0  0  0  0  0  0
    3.6439    3.1272    8.6136 H   0  0  0  0  0  0  0  0  0  0  0  0
    2.9987    4.0113    7.2287 H   0  0  0  0  0  0  0  0  0  0  0  0
  1 34  1  0  0  0  0
  1 69  1  0  0  0  0
  1 70  1  0  0  0  0
  2 32  1  0  0  0  0
  2 56  1  0  0  0  0
  2 57  1  0  0  0  0
  3  4  2  0  0  0  0
  3 26  1  0  0  0  0
  4  5  1  0  0  0  0
  4 25  1  0  0  0  0
  5  6  2  0  0  0  0
  5  9  1  0  0  0  0
  6  7  1  0  0  0  0
  7  8  2  0  0  0  0
  7 27  1  0  0  0  0
  8 38  1  0  0  0  0
  8  3  1  0  0  0  0
  9 10  1  0  0  0  0
 10 11  2  0  0  0  0
 11 12  1  0  0  0  0
 12  1  1  0  0  0  0
 12  6  1  0  0  0  0
 13 14  2  0  0  0  0
 13 20  1  0  0  0  0
 13  9  1  0  0  0  0
 14 15  1  0  0  0  0
 15  2  1  0  0  0  0
 15 16  1  0  0  0  0
 16 10  1  0  0  0  0
 16 17  2  0  0  0  0
 17 18  1  0  0  0  0
 17 30  1  0  0  0  0
 18 50  1  0  0  0  0
 18 19  2  0  0  0  0
 19 11  1  0  0  0  0
 19 31  1  0  0  0  0
 20 21  2  0  0  0  0
 21 22  1  0  0  0  0
 21 28  1  0  0  0  0
 22 44  1  0  0  0  0
 22 23  2  0  0  0  0
 23 14  1  0  0  0  0
 23 29  1  0  0  0  0
 24 36  1  0  0  0  0
 24 20  1  0  0  0  0
 25 37  1  0  0  0  0
 32 33  1  0  0  0  0
 32 58  1  0  0  0  0
 32 59  1  0  0  0  0
 33 60  1  0  0  0  0
 33 61  1  0  0  0  0
 33 62  1  0  0  0  0
 34 35  1  0  0  0  0
 34 71  1  0  0  0  0
 34 72  1  0  0  0  0
 35 73  1  0  0  0  0
 35 74  1  0  0  0  0
 35 75  1  0  0  0  0
 36 66  1  0  0  0  0
 36 67  1  0  0  0  0
 36 68  1  0  0  0  0
 37 63  1  0  0  0  0
 37 64  1  0  0  0  0
 37 65  1  0  0  0  0
 38 39  1  0  0  0  0
 38 40  1  0  0  0  0
 38 41  1  0  0  0  0
 38 42  1  0  0  0  0
 38 43  1  0  0  0  0
 44 45  1  0  0  0  0
 44 46  1  0  0  0  0
 44 47  1  0  0  0  0
 44 48  1  0  0  0  0
 44 49  1  0  0  0  0
 50 51  1  0  0  0  0
 50 52  1  0  0  0  0
 50 53  1  0  0  0  0
 50 54  1  0  0  0  0
 50 55  1  0  0  0  0
 76109  1  0  0  0  0
 76144  1  0  0  0  0
 76145  1  0  0  0  0
 77107  1  0  0  0  0
 77131  1  0  0  0  0
 77132  1  0  0  0  0
 78 79  2  0  0  0  0
 78101  1  0  0  0  0
 79 80  1  0  0  0  0
 79100  1  0  0  0  0
 80 81  2  0  0  0  0
 80 84  1  0  0  0  0
 81 82  1  0  0  0  0
 82 83  2  0  0  0  0
 82102  1  0  0  0  0
 83113  1  0  0  0  0
 83 78  1  0  0  0  0
 84 85  1  0  0  0  0
 85 86  2  0  0  0  0
 86 87  1  0  0  0  0
 87 76  1  0  0  0  0
 87 81  1  0  0  0  0
 88 89  2  0  0  0  0
 88 95  1  0  0  0  0
 88 84  1  0  0  0  0
 89 90  1  0  0  0  0
 90 77  1  0  0  0  0
 90 91  1  0  0  0  0
 91 85  1  0  0  0  0
 91 92  2  0  0  0  0
 92 93  1  0  0  0  0
 92105  1  0  0  0  0
 93125  1  0  0  0  0
 93 94  2  0  0  0  0
 94 86  1  0  0  0  0
 94106  1  0  0  0  0
 95 96  2  0  0  0  0
 96 97  1  0  0  0  0
 96103  1  0  0  0  0
 97119  1  0  0  0  0
 97 98  2  0  0  0  0
 98 89  1  0  0  0  0
 98104  1  0  0  0  0
 99111  1  0  0  0  0
 99 95  1  0  0  0  0
100112  1  0  0  0  0
107108  1  0  0  0  0
107133  1  0  0  0  0
107134  1  0  0  0  0
108135  1  0  0  0  0
108136  1  0  0  0  0
108137  1  0  0  0  0
109110  1  0  0  0  0
109146  1  0  0  0  0
109147  1  0  0  0  0
110148  1  0  0  0  0
110149  1  0  0  0  0
110150  1  0  0  0  0
111141  1  0  0  0  0
111142  1  0  0  0  0
111143  1  0  0  0  0
112138  1  0  0  0  0
112139  1  0  0  0  0
112140  1  0  0  0  0
113114  1  0  0  0  0
113115  1  0  0  0  0
113116  1  0  0  0  0
113117  1  0  0  0  0
113118  1  0  0  0  0
119120  1  0  0  0  0
119121  1  0  0  0  0
119122  1  0  0  0  0
119123  1  0  0  0  0
119124  1  0  0  0  0
125126  1  0  0  0  0
125127  1  0  0  0  0
125128  1  0  0  0  0
125129  1  0  0  0  0
125130  1  0  0  0  0
M  END
