energy: -218.465169156617 gnorm: 0.000518169279 xtb: 6.7.1 (edcfbbe)_energy: -218.465169156617 gnorm: 0.000518169279 xtb: 6.7.1 (edcfbbe)
 OpenBabel03062514223D

230252  0  0  0  0  0  0  0  0999 V2000
    0.0432    3.3144    2.5619 C   0  0  0  0  0  0  0  0  0  0  0  0
    0.6145    2.1036    2.1875 C   0  0  0  0  0  0  0  0  0  0  0  0
    1.9578    2.0713    1.7297 C   0  0  0  0  0  0  0  0  0  0  0  0
    2.6322    3.3372    1.6005 C   0  0  0  0  0  0  0  0  0  0  0  0
    1.9316    4.5548    1.7886 C   0  0  0  0  0  0  0  0  0  0  0  0
    0.6713    4.5298    2.3053 C   0  0  0  0  0  0  0  0  0  0  0  0
    2.7382    0.8761    1.5816 C   0  0  0  0  0  0  0  0  0  0  0  0
    4.1378    1.0785    1.6263 C   0  0  1  0  0  0  0  0  0  0  0  0
    4.6937    2.3815    1.4512 C   0  0  0  0  0  0  0  0  0  0  0  0
    3.9342    3.4654    1.3646 N   0  0  0  0  0  0  0  0  0  0  0  0
    2.3118   -0.4996    1.4491 C   0  0  0  0  0  0  0  0  0  0  0  0
    3.2834   -1.4813    1.8656 C   0  0  0  0  0  0  0  0  0  0  0  0
    4.5557   -1.2204    2.1484 N   0  0  0  0  0  0  0  0  0  0  0  0
    5.0247   -0.0055    1.8867 C   0  0  0  0  0  0  0  0  0  0  0  0
    6.4176    0.2095    1.9184 C   0  0  0  0  0  0  0  0  0  0  0  0
    6.9249    1.4607    1.6328 C   0  0  0  0  0  0  0  0  0  0  0  0
    6.0968    2.5323    1.3867 C   0  0  0  0  0  0  0  0  0  0  0  0
    1.1586   -1.0016    0.7815 C   0  0  0  0  0  0  0  0  0  0  0  0
    1.0400   -2.3892    0.5994 C   0  0  0  0  0  0  0  0  0  0  0  0
    1.9067   -3.3116    1.1538 C   0  0  0  0  0  0  0  0  0  0  0  0
    3.0063   -2.8720    1.8311 C   0  0  0  0  0  0  0  0  0  0  0  0
   -0.1210    1.0028    2.3250 O   0  0  0  0  0  0  0  0  0  0  0  0
   -0.3642    6.0449    2.4147 S   0  0  1  0  0  0  0  0  0  0  0  0
    1.7757   -5.1188    0.8558 S   0  0  1  0  0  0  0  0  0  0  0  0
    8.7537    1.7077    1.6602 S   0  0  1  0  0  0  0  0  0  0  0  0
   -1.6737   -2.7303    1.6795 C   0  0  0  0  0  0  0  0  0  0  0  0
   -2.2229   -1.5404    1.2142 C   0  0  0  0  0  0  0  0  0  0  0  0
   -3.1820   -1.5582    0.1641 C   0  0  0  0  0  0  0  0  0  0  0  0
   -3.4036   -2.8257   -0.4831 C   0  0  0  0  0  0  0  0  0  0  0  0
   -2.7372   -3.9954   -0.0412 C   0  0  0  0  0  0  0  0  0  0  0  0
   -1.9347   -3.9446    1.0598 C   0  0  0  0  0  0  0  0  0  0  0  0
   -4.0392   -0.4633   -0.1968 C   0  0  0  0  0  0  0  0  0  0  0  0
   -5.1056   -0.7941   -1.0643 C   0  0  1  0  0  0  0  0  0  0  0  0
   -5.1167   -2.0359   -1.7684 C   0  0  0  0  0  0  0  0  0  0  0  0
   -4.2554   -3.0060   -1.4912 N   0  0  0  0  0  0  0  0  0  0  0  0
   -4.0592    0.8845    0.3251 C   0  0  0  0  0  0  0  0  0  0  0  0
   -5.3675    1.4963    0.3599 C   0  0  0  0  0  0  0  0  0  0  0  0
   -6.3891    1.1065   -0.3920 N   0  0  0  0  0  0  0  0  0  0  0  0
   -6.2226    0.0787   -1.2167 C   0  0  0  0  0  0  0  0  0  0  0  0
   -7.2133   -0.2080   -2.1768 C   0  0  0  0  0  0  0  0  0  0  0  0
   -7.1157   -1.3481   -2.9457 C   0  0  0  0  0  0  0  0  0  0  0  0
   -6.1029   -2.2635   -2.7547 C   0  0  0  0  0  0  0  0  0  0  0  0
   -2.9778    1.7317    0.7003 C   0  0  0  0  0  0  0  0  0  0  0  0
   -3.2613    2.9175    1.3780 C   0  0  0  0  0  0  0  0  0  0  0  0
   -4.5541    3.3273    1.6755 C   0  0  0  0  0  0  0  0  0  0  0  0
   -5.6111    2.6582    1.1352 C   0  0  0  0  0  0  0  0  0  0  0  0
   -1.8325   -0.4182    1.8097 O   0  0  0  0  0  0  0  0  0  0  0  0
   -1.1432   -5.4584    1.6970 S   0  0  1  0  0  0  0  0  0  0  0  0
   -4.8142    4.7710    2.7942 S   0  0  2  0  0  0  0  0  0  0  0  0
   -8.4187   -1.7236   -4.1961 S   0  0  2  0  0  0  0  0  0  0  0  0
   -0.8516    0.4660    1.1866 B   0  0  2  0  0  0  0  0  0  0  0  0
    8.9293    3.0328    1.1054 O   0  0  0  0  0  0  0  0  0  0  0  0
    8.8719    1.8253    3.3219 O   0  0  0  0  0  0  0  0  0  0  0  0
    8.4742    3.0421    3.9004 C   0  0  0  0  0  0  0  0  0  0  0  0
    0.3347   -5.0917   -0.0710 O   0  0  0  0  0  0  0  0  0  0  0  0
    0.4476   -5.2982   -1.4565 C   0  0  0  0  0  0  0  0  0  0  0  0
    2.8331   -5.2987   -0.1289 O   0  0  0  0  0  0  0  0  0  0  0  0
    0.0030   -4.9490    2.4541 O   0  0  0  0  0  0  0  0  0  0  0  0
   -2.3147   -5.8051    2.8247 O   0  0  0  0  0  0  0  0  0  0  0  0
   -2.3940   -5.0074    3.9799 C   0  0  0  0  0  0  0  0  0  0  0  0
   -9.2440   -0.5344   -4.2000 O   0  0  0  0  0  0  0  0  0  0  0  0
   -9.1926   -2.8883   -3.2834 O   0  0  0  0  0  0  0  0  0  0  0  0
   -9.9880   -2.4309   -2.2196 C   0  0  0  0  0  0  0  0  0  0  0  0
   -6.1132    5.2743    2.4005 O   0  0  0  0  0  0  0  0  0  0  0  0
   -3.6390    5.7615    2.1456 O   0  0  0  0  0  0  0  0  0  0  0  0
   -3.9560    6.4152    0.9418 C   0  0  0  0  0  0  0  0  0  0  0  0
    0.5708    7.1474    2.4105 O   0  0  0  0  0  0  0  0  0  0  0  0
   -0.9191    5.8569    0.8284 O   0  0  0  0  0  0  0  0  0  0  0  0
   -0.1023    6.3720   -0.1884 C   0  0  0  0  0  0  0  0  0  0  0  0
    0.1715   -0.2030    0.2281 N   0  0  0  0  0  0  0  0  0  0  0  0
    0.8524   -0.5947   -2.1036 C   0  0  0  0  0  0  0  0  0  0  0  0
   -0.2921   -0.5808   -1.0934 C   0  0  0  0  0  0  0  0  0  0  0  0
   -1.6529    1.4836    0.3580 N   0  0  0  0  0  0  0  0  0  0  0  0
   -1.6811    2.8989   -1.6641 C   0  0  0  0  0  0  0  0  0  0  0  0
   -0.9853    2.5605   -0.3439 C   0  0  0  0  0  0  0  0  0  0  0  0
   -2.8256   -5.6192    4.7715 H   0  0  0  0  0  0  0  0  0  0  0  0
   -3.0258   -4.1312    3.8042 H   0  0  0  0  0  0  0  0  0  0  0  0
   -1.3915   -4.6828    4.2731 H   0  0  0  0  0  0  0  0  0  0  0  0
   -0.0797   -6.2126   -1.7333 H   0  0  0  0  0  0  0  0  0  0  0  0
    1.5080   -5.3939   -1.7161 H   0  0  0  0  0  0  0  0  0  0  0  0
    0.0159   -4.4474   -1.9892 H   0  0  0  0  0  0  0  0  0  0  0  0
    9.0540    3.1776    4.8120 H   0  0  0  0  0  0  0  0  0  0  0  0
    7.4059    3.0261    4.1384 H   0  0  0  0  0  0  0  0  0  0  0  0
    8.6804    3.8677    3.2111 H   0  0  0  0  0  0  0  0  0  0  0  0
    0.4612   -0.7881   -3.0992 H   0  0  0  0  0  0  0  0  0  0  0  0
    1.5804   -1.3652   -1.8600 H   0  0  0  0  0  0  0  0  0  0  0  0
    1.3592    0.3676   -2.1080 H   0  0  0  0  0  0  0  0  0  0  0  0
   -0.8060   -1.5530   -1.1079 H   0  0  0  0  0  0  0  0  0  0  0  0
   -1.0361    0.1628   -1.3794 H   0  0  0  0  0  0  0  0  0  0  0  0
   -1.1308    3.6871   -2.1709 H   0  0  0  0  0  0  0  0  0  0  0  0
   -2.6957    3.2462   -1.4825 H   0  0  0  0  0  0  0  0  0  0  0  0
   -1.7269    2.0314   -2.3187 H   0  0  0  0  0  0  0  0  0  0  0  0
   -0.9394    3.4783    0.2536 H   0  0  0  0  0  0  0  0  0  0  0  0
    0.0381    2.2286   -0.5302 H   0  0  0  0  0  0  0  0  0  0  0  0
   -3.4353    7.3708    0.9389 H   0  0  0  0  0  0  0  0  0  0  0  0
   -5.0363    6.5844    0.8837 H   0  0  0  0  0  0  0  0  0  0  0  0
   -3.6322    5.8152    0.0871 H   0  0  0  0  0  0  0  0  0  0  0  0
  -10.7833   -3.1588   -2.0670 H   0  0  0  0  0  0  0  0  0  0  0  0
  -10.4266   -1.4599   -2.4725 H   0  0  0  0  0  0  0  0  0  0  0  0
   -9.3928   -2.3341   -1.3062 H   0  0  0  0  0  0  0  0  0  0  0  0
   -0.7497    6.7397   -0.9842 H   0  0  0  0  0  0  0  0  0  0  0  0
    0.5638    5.5954   -0.5787 H   0  0  0  0  0  0  0  0  0  0  0  0
    0.4996    7.1996    0.2017 H   0  0  0  0  0  0  0  0  0  0  0  0
   -8.0445    0.4683   -2.3025 H   0  0  0  0  0  0  0  0  0  0  0  0
   -6.0631   -3.1821   -3.3177 H   0  0  0  0  0  0  0  0  0  0  0  0
   -6.6205    3.0284    1.2127 H   0  0  0  0  0  0  0  0  0  0  0  0
   -2.9351   -4.9163   -0.5641 H   0  0  0  0  0  0  0  0  0  0  0  0
    3.7594   -3.5442    2.2076 H   0  0  0  0  0  0  0  0  0  0  0  0
    7.0625   -0.6219    2.1527 H   0  0  0  0  0  0  0  0  0  0  0  0
    6.5101    3.5037    1.1621 H   0  0  0  0  0  0  0  0  0  0  0  0
    2.4497    5.4820    1.6036 H   0  0  0  0  0  0  0  0  0  0  0  0
   -0.9867   -2.6863    2.5109 H   0  0  0  0  0  0  0  0  0  0  0  0
    0.2045   -2.7673    0.0378 H   0  0  0  0  0  0  0  0  0  0  0  0
   -0.9311    3.2893    3.0240 H   0  0  0  0  0  0  0  0  0  0  0  0
   -2.4479    3.5493    1.6925 H   0  0  0  0  0  0  0  0  0  0  0  0
    0.0432    3.3144   12.5619 C   0  0  0  0  0  0  0  0  0  0  0  0
    0.6145    2.1036   12.1875 C   0  0  0  0  0  0  0  0  0  0  0  0
    1.9578    2.0713   11.7297 C   0  0  0  0  0  0  0  0  0  0  0  0
    2.6322    3.3372   11.6005 C   0  0  0  0  0  0  0  0  0  0  0  0
    1.9316    4.5548   11.7886 C   0  0  0  0  0  0  0  0  0  0  0  0
    0.6713    4.5298   12.3053 C   0  0  0  0  0  0  0  0  0  0  0  0
    2.7382    0.8761   11.5816 C   0  0  0  0  0  0  0  0  0  0  0  0
    4.1378    1.0785   11.6263 C   0  0  1  0  0  0  0  0  0  0  0  0
    4.6937    2.3815   11.4512 C   0  0  0  0  0  0  0  0  0  0  0  0
    3.9342    3.4654   11.3646 N   0  0  0  0  0  0  0  0  0  0  0  0
    2.3118   -0.4996   11.4491 C   0  0  0  0  0  0  0  0  0  0  0  0
    3.2834   -1.4813   11.8656 C   0  0  0  0  0  0  0  0  0  0  0  0
    4.5557   -1.2204   12.1484 N   0  0  0  0  0  0  0  0  0  0  0  0
    5.0247   -0.0055   11.8867 C   0  0  0  0  0  0  0  0  0  0  0  0
    6.4176    0.2095   11.9184 C   0  0  0  0  0  0  0  0  0  0  0  0
    6.9249    1.4607   11.6328 C   0  0  0  0  0  0  0  0  0  0  0  0
    6.0968    2.5323   11.3867 C   0  0  0  0  0  0  0  0  0  0  0  0
    1.1586   -1.0016   10.7815 C   0  0  0  0  0  0  0  0  0  0  0  0
    1.0400   -2.3892   10.5994 C   0  0  0  0  0  0  0  0  0  0  0  0
    1.9067   -3.3116   11.1538 C   0  0  0  0  0  0  0  0  0  0  0  0
    3.0063   -2.8720   11.8311 C   0  0  0  0  0  0  0  0  0  0  0  0
   -0.1210    1.0028   12.3250 O   0  0  0  0  0  0  0  0  0  0  0  0
   -0.3642    6.0449   12.4147 S   0  0  1  0  0  0  0  0  0  0  0  0
    1.7757   -5.1188   10.8558 S   0  0  1  0  0  0  0  0  0  0  0  0
    8.7537    1.7077   11.6602 S   0  0  1  0  0  0  0  0  0  0  0  0
   -1.6737   -2.7303   11.6795 C   0  0  0  0  0  0  0  0  0  0  0  0
   -2.2229   -1.5404   11.2142 C   0  0  0  0  0  0  0  0  0  0  0  0
   -3.1820   -1.5582   10.1641 C   0  0  0  0  0  0  0  0  0  0  0  0
   -3.4036   -2.8257    9.5169 C   0  0  0  0  0  0  0  0  0  0  0  0
   -2.7372   -3.9954    9.9588 C   0  0  0  0  0  0  0  0  0  0  0  0
   -1.9347   -3.9446   11.0598 C   0  0  0  0  0  0  0  0  0  0  0  0
   -4.0392   -0.4633    9.8032 C   0  0  0  0  0  0  0  0  0  0  0  0
   -5.1056   -0.7941    8.9357 C   0  0  1  0  0  0  0  0  0  0  0  0
   -5.1167   -2.0359    8.2316 C   0  0  0  0  0  0  0  0  0  0  0  0
   -4.2554   -3.0060    8.5088 N   0  0  0  0  0  0  0  0  0  0  0  0
   -4.0592    0.8845   10.3251 C   0  0  0  0  0  0  0  0  0  0  0  0
   -5.3675    1.4963   10.3599 C   0  0  0  0  0  0  0  0  0  0  0  0
   -6.3891    1.1065    9.6080 N   0  0  0  0  0  0  0  0  0  0  0  0
   -6.2226    0.0787    8.7833 C   0  0  0  0  0  0  0  0  0  0  0  0
   -7.2133   -0.2080    7.8232 C   0  0  0  0  0  0  0  0  0  0  0  0
   -7.1157   -1.3481    7.0543 C   0  0  0  0  0  0  0  0  0  0  0  0
   -6.1029   -2.2635    7.2453 C   0  0  0  0  0  0  0  0  0  0  0  0
   -2.9778    1.7317   10.7003 C   0  0  0  0  0  0  0  0  0  0  0  0
   -3.2613    2.9175   11.3780 C   0  0  0  0  0  0  0  0  0  0  0  0
   -4.5541    3.3273   11.6755 C   0  0  0  0  0  0  0  0  0  0  0  0
   -5.6111    2.6582   11.1352 C   0  0  0  0  0  0  0  0  0  0  0  0
   -1.8325   -0.4182   11.8097 O   0  0  0  0  0  0  0  0  0  0  0  0
   -1.1432   -5.4584   11.6970 S   0  0  1  0  0  0  0  0  0  0  0  0
   -4.8142    4.7710   12.7942 S   0  0  2  0  0  0  0  0  0  0  0  0
   -8.4187   -1.7236    5.8039 S   0  0  2  0  0  0  0  0  0  0  0  0
   -0.8516    0.4660   11.1866 B   0  0  2  0  0  0  0  0  0  0  0  0
    8.9293    3.0328   11.1054 O   0  0  0  0  0  0  0  0  0  0  0  0
    8.8719    1.8253   13.3219 O   0  0  0  0  0  0  0  0  0  0  0  0
    8.4742    3.0421   13.9004 C   0  0  0  0  0  0  0  0  0  0  0  0
    0.3347   -5.0917    9.9290 O   0  0  0  0  0  0  0  0  0  0  0  0
    0.4476   -5.2982    8.5435 C   0  0  0  0  0  0  0  0  0  0  0  0
    2.8331   -5.2987    9.8711 O   0  0  0  0  0  0  0  0  0  0  0  0
    0.0030   -4.9490   12.4541 O   0  0  0  0  0  0  0  0  0  0  0  0
   -2.3147   -5.8051   12.8247 O   0  0  0  0  0  0  0  0  0  0  0  0
   -2.3940   -5.0074   13.9799 C   0  0  0  0  0  0  0  0  0  0  0  0
   -9.2440   -0.5344    5.8000 O   0  0  0  0  0  0  0  0  0  0  0  0
   -9.1926   -2.8883    6.7166 O   0  0  0  0  0  0  0  0  0  0  0  0
   -9.9880   -2.4309    7.7804 C   0  0  0  0  0  0  0  0  0  0  0  0
   -6.1132    5.2743   12.4005 O   0  0  0  0  0  0  0  0  0  0  0  0
   -3.6390    5.7615   12.1456 O   0  0  0  0  0  0  0  0  0  0  0  0
   -3.9560    6.4152   10.9418 C   0  0  0  0  0  0  0  0  0  0  0  0
    0.5708    7.1474   12.4105 O   0  0  0  0  0  0  0  0  0  0  0  0
   -0.9191    5.8569   10.8284 O   0  0  0  0  0  0  0  0  0  0  0  0
   -0.1023    6.3720    9.8116 C   0  0  0  0  0  0  0  0  0  0  0  0
    0.1715   -0.2030   10.2281 N   0  0  0  0  0  0  0  0  0  0  0  0
    0.8524   -0.5947    7.8964 C   0  0  0  0  0  0  0  0  0  0  0  0
   -0.2921   -0.5808    8.9066 C   0  0  0  0  0  0  0  0  0  0  0  0
   -1.6529    1.4836   10.3580 N   0  0  0  0  0  0  0  0  0  0  0  0
   -1.6811    2.8989    8.3359 C   0  0  0  0  0  0  0  0  0  0  0  0
   -0.9853    2.5605    9.6561 C   0  0  0  0  0  0  0  0  0  0  0  0
   -2.8256   -5.6192   14.7715 H   0  0  0  0  0  0  0  0  0  0  0  0
   -3.0258   -4.1312   13.8042 H   0  0  0  0  0  0  0  0  0  0  0  0
   -1.3915   -4.6828   14.2731 H   0  0  0  0  0  0  0  0  0  0  0  0
   -0.0797   -6.2126    8.2667 H   0  0  0  0  0  0  0  0  0  0  0  0
    1.5080   -5.3939    8.2839 H   0  0  0  0  0  0  0  0  0  0  0  0
    0.0159   -4.4474    8.0108 H   0  0  0  0  0  0  0  0  0  0  0  0
    9.0540    3.1776   14.8120 H   0  0  0  0  0  0  0  0  0  0  0  0
    7.4059    3.0261   14.1384 H   0  0  0  0  0  0  0  0  0  0  0  0
    8.6804    3.8677   13.2111 H   0  0  0  0  0  0  0  0  0  0  0  0
    0.4612   -0.7881    6.9008 H   0  0  0  0  0  0  0  0  0  0  0  0
    1.5804   -1.3652    8.1400 H   0  0  0  0  0  0  0  0  0  0  0  0
    1.3592    0.3676    7.8920 H   0  0  0  0  0  0  0  0  0  0  0  0
   -0.8060   -1.5530    8.8921 H   0  0  0  0  0  0  0  0  0  0  0  0
   -1.0361    0.1628    8.6206 H   0  0  0  0  0  0  0  0  0  0  0  0
   -1.1308    3.6871    7.8291 H   0  0  0  0  0  0  0  0  0  0  0  0
   -2.6957    3.2462    8.5175 H   0  0  0  0  0  0  0  0  0  0  0  0
   -1.7269    2.0314    7.6813 H   0  0  0  0  0  0  0  0  0  0  0  0
   -0.9394    3.4783   10.2536 H   0  0  0  0  0  0  0  0  0  0  0  0
    0.0381    2.2286    9.4698 H   0  0  0  0  0  0  0  0  0  0  0  0
   -3.4353    7.3708   10.9389 H   0  0  0  0  0  0  0  0  0  0  0  0
   -5.0363    6.5844   10.8837 H   0  0  0  0  0  0  0  0  0  0  0  0
   -3.6322    5.8152   10.0871 H   0  0  0  0  0  0  0  0  0  0  0  0
  -10.7833   -3.1588    7.9330 H   0  0  0  0  0  0  0  0  0  0  0  0
  -10.4266   -1.4599    7.5275 H   0  0  0  0  0  0  0  0  0  0  0  0
   -9.3928   -2.3341    8.6938 H   0  0  0  0  0  0  0  0  0  0  0  0
   -0.7497    6.7397    9.0158 H   0  0  0  0  0  0  0  0  0  0  0  0
    0.5638    5.5954    9.4213 H   0  0  0  0  0  0  0  0  0  0  0  0
    0.4996    7.1996   10.2017 H   0  0  0  0  0  0  0  0  0  0  0  0
   -8.0445    0.4683    7.6975 H   0  0  0  0  0  0  0  0  0  0  0  0
   -6.0631   -3.1821    6.6823 H   0  0  0  0  0  0  0  0  0  0  0  0
   -6.6205    3.0284   11.2127 H   0  0  0  0  0  0  0  0  0  0  0  0
   -2.9351   -4.9163    9.4359 H   0  0  0  0  0  0  0  0  0  0  0  0
    3.7594   -3.5442   12.2076 H   0  0  0  0  0  0  0  0  0  0  0  0
    7.0625   -0.6219   12.1527 H   0  0  0  0  0  0  0  0  0  0  0  0
    6.5101    3.5037   11.1621 H   0  0  0  0  0  0  0  0  0  0  0  0
    2.4497    5.4820   11.6036 H   0  0  0  0  0  0  0  0  0  0  0  0
   -0.9867   -2.6863   12.5109 H   0  0  0  0  0  0  0  0  0  0  0  0
    0.2045   -2.7673   10.0378 H   0  0  0  0  0  0  0  0  0  0  0  0
   -0.9311    3.2893   13.0240 H   0  0  0  0  0  0  0  0  0  0  0  0
   -2.4479    3.5493   11.6925 H   0  0  0  0  0  0  0  0  0  0  0  0
  1  2  2  0  0  0  0
  1114  1  0  0  0  0
  2  3  1  0  0  0  0
  3  4  2  0  0  0  0
  3  7  1  0  0  0  0
  4  5  1  0  0  0  0
  5  6  2  0  0  0  0
  5111  1  0  0  0  0
  6  1  1  0  0  0  0
  6 23  1  0  0  0  0
  7 11  2  0  0  0  0
  8  7  1  1  0  0  0
  8  9  1  0  0  0  0
  9 10  2  0  0  0  0
 10  4  1  0  0  0  0
 11 12  1  0  0  0  0
 11 18  1  0  0  0  0
 12 13  2  0  0  0  0
 13 14  1  0  0  0  0
 14  8  1  0  0  0  0
 14 15  2  0  0  0  0
 15 16  1  0  0  0  0
 15109  1  0  0  0  0
 16 17  2  0  0  0  0
 16 25  1  0  0  0  0
 17  9  1  0  0  0  0
 17110  1  0  0  0  0
 18 70  1  0  0  0  0
 18 19  2  0  0  0  0
 19 20  1  0  0  0  0
 19113  1  0  0  0  0
 20 21  2  0  0  0  0
 20 24  1  0  0  0  0
 21 12  1  0  0  0  0
 21108  1  0  0  0  0
 22  2  1  0  0  0  0
 23 67  2  6  0  0  0
 23 68  1  0  0  0  0
 24 55  1  0  0  0  0
 24 57  2  6  0  0  0
 25 52  2  6  0  0  0
 25 53  1  0  0  0  0
 26 27  2  0  0  0  0
 26112  1  0  0  0  0
 27 28  1  0  0  0  0
 27 47  1  0  0  0  0
 28 29  2  0  0  0  0
 28 32  1  0  0  0  0
 29 30  1  0  0  0  0
 30 31  2  0  0  0  0
 30107  1  0  0  0  0
 31 26  2  0  0  0  0
 31 48  1  0  0  0  0
 32 36  2  0  0  0  0
 33 32  1  1  0  0  0
 33 34  1  0  0  0  0
 34 35  2  0  0  0  0
 35 29  1  0  0  0  0
 36 37  1  0  0  0  0
 36 43  1  0  0  0  0
 37 38  2  0  0  0  0
 38 39  1  0  0  0  0
 39 33  1  0  0  0  0
 39 40  2  0  0  0  0
 40 41  1  0  0  0  0
 40104  1  0  0  0  0
 41 42  2  0  0  0  0
 41 50  1  0  0  0  0
 42 34  1  0  0  0  0
 42105  1  0  0  0  0
 43 73  1  0  0  0  0
 43 44  2  0  0  0  0
 44 45  1  0  0  0  0
 44115  1  0  0  0  0
 45 46  2  0  0  0  0
 45 49  1  0  0  0  0
 46 37  1  0  0  0  0
 46106  1  0  0  0  0
 48 58  2  1  0  0  0
 48 59  1  0  0  0  0
 49 64  2  6  0  0  0
 49 65  1  0  0  0  0
 50 61  2  1  0  0  0
 50 62  1  0  0  0  0
 51 70  1  0  0  0  0
 51 73  1  0  0  0  0
 51 22  1  1  0  0  0
 51 47  1  0  0  0  0
 53 54  1  0  0  0  0
 54 82  1  0  0  0  0
 54 83  1  0  0  0  0
 54 84  1  0  0  0  0
 55 56  1  0  0  0  0
 56 79  1  0  0  0  0
 56 80  1  0  0  0  0
 56 81  1  0  0  0  0
 59 60  1  0  0  0  0
 60 76  1  0  0  0  0
 60 77  1  0  0  0  0
 60 78  1  0  0  0  0
 62 63  1  0  0  0  0
 63 98  1  0  0  0  0
 63 99  1  0  0  0  0
 63100  1  0  0  0  0
 65 66  1  0  0  0  0
 66 95  1  0  0  0  0
 66 96  1  0  0  0  0
 66 97  1  0  0  0  0
 68 69  1  0  0  0  0
 69101  1  0  0  0  0
 69102  1  0  0  0  0
 69103  1  0  0  0  0
 70 72  1  0  0  0  0
 71 72  1  0  0  0  0
 71 85  1  0  0  0  0
 71 86  1  0  0  0  0
 71 87  1  0  0  0  0
 72 88  1  0  0  0  0
 72 89  1  0  0  0  0
 73 75  1  0  0  0  0
 74 75  1  0  0  0  0
 74 90  1  0  0  0  0
 74 91  1  0  0  0  0
 74 92  1  0  0  0  0
 75 93  1  0  0  0  0
 75 94  1  0  0  0  0
116117  2  0  0  0  0
116229  1  0  0  0  0
117118  1  0  0  0  0
118119  2  0  0  0  0
118122  1  0  0  0  0
119120  1  0  0  0  0
120121  2  0  0  0  0
120226  1  0  0  0  0
121116  1  0  0  0  0
121138  1  0  0  0  0
122126  2  0  0  0  0
123122  1  1  0  0  0
123124  1  0  0  0  0
124125  2  0  0  0  0
125119  1  0  0  0  0
126127  1  0  0  0  0
126133  1  0  0  0  0
127128  2  0  0  0  0
128129  1  0  0  0  0
129123  1  0  0  0  0
129130  2  0  0  0  0
130131  1  0  0  0  0
130224  1  0  0  0  0
131132  2  0  0  0  0
131140  1  0  0  0  0
132124  1  0  0  0  0
132225  1  0  0  0  0
133185  1  0  0  0  0
133134  2  0  0  0  0
134135  1  0  0  0  0
134228  1  0  0  0  0
135136  2  0  0  0  0
135139  1  0  0  0  0
136127  1  0  0  0  0
136223  1  0  0  0  0
137117  1  0  0  0  0
138182  2  6  0  0  0
138183  1  0  0  0  0
139170  1  0  0  0  0
139172  2  6  0  0  0
140167  2  6  0  0  0
140168  1  0  0  0  0
141142  2  0  0  0  0
141227  1  0  0  0  0
142143  1  0  0  0  0
142162  1  0  0  0  0
143144  2  0  0  0  0
143147  1  0  0  0  0
144145  1  0  0  0  0
145146  2  0  0  0  0
145222  1  0  0  0  0
146141  2  0  0  0  0
146163  1  0  0  0  0
147151  2  0  0  0  0
148147  1  1  0  0  0
148149  1  0  0  0  0
149150  2  0  0  0  0
150144  1  0  0  0  0
151152  1  0  0  0  0
151158  1  0  0  0  0
152153  2  0  0  0  0
153154  1  0  0  0  0
154148  1  0  0  0  0
154155  2  0  0  0  0
155156  1  0  0  0  0
155219  1  0  0  0  0
156157  2  0  0  0  0
156165  1  0  0  0  0
157149  1  0  0  0  0
157220  1  0  0  0  0
158188  1  0  0  0  0
158159  2  0  0  0  0
159160  1  0  0  0  0
159230  1  0  0  0  0
160161  2  0  0  0  0
160164  1  0  0  0  0
161152  1  0  0  0  0
161221  1  0  0  0  0
163173  2  1  0  0  0
163174  1  0  0  0  0
164179  2  6  0  0  0
164180  1  0  0  0  0
165176  2  1  0  0  0
165177  1  0  0  0  0
166185  1  0  0  0  0
166188  1  0  0  0  0
166137  1  1  0  0  0
166162  1  0  0  0  0
168169  1  0  0  0  0
169197  1  0  0  0  0
169198  1  0  0  0  0
169199  1  0  0  0  0
170171  1  0  0  0  0
171194  1  0  0  0  0
171195  1  0  0  0  0
171196  1  0  0  0  0
174175  1  0  0  0  0
175191  1  0  0  0  0
175192  1  0  0  0  0
175193  1  0  0  0  0
177178  1  0  0  0  0
178213  1  0  0  0  0
178214  1  0  0  0  0
178215  1  0  0  0  0
180181  1  0  0  0  0
181210  1  0  0  0  0
181211  1  0  0  0  0
181212  1  0  0  0  0
183184  1  0  0  0  0
184216  1  0  0  0  0
184217  1  0  0  0  0
184218  1  0  0  0  0
185187  1  0  0  0  0
186187  1  0  0  0  0
186200  1  0  0  0  0
186201  1  0  0  0  0
186202  1  0  0  0  0
187203  1  0  0  0  0
187204  1  0  0  0  0
188190  1  0  0  0  0
189190  1  0  0  0  0
189205  1  0  0  0  0
189206  1  0  0  0  0
189207  1  0  0  0  0
190208  1  0  0  0  0
190209  1  0  0  0  0
M  END
