 energy: -130.265277522268 gnorm: 0.000259432746 xtb: 6.7.1 (edcfbbe)
          03032514243D

 78 82  0     0  0            999 V2000
    0.8287    3.2266   -3.3852 C   0  0  0  0  0  0  0  0  0  0  0  0
    2.7602   -3.1219   -0.2709 C   0  0  0  0  0  0  0  0  0  0  0  0
   -3.3960    0.6013   -2.3373 C   0  0  0  0  0  0  0  0  0  0  0  0
   -2.3651   -0.0511   -1.6853 C   0  0  0  0  0  0  0  0  0  0  0  0
   -1.0424    0.4585   -1.7689 C   0  0  0  0  0  0  0  0  0  0  0  0
   -0.7593    1.5100   -2.6705 C   0  0  0  0  0  0  0  0  0  0  0  0
   -1.8138    2.1441   -3.3233 C   0  0  0  0  0  0  0  0  0  0  0  0
   -3.1058    1.7123   -3.1140 C   0  0  0  0  0  0  0  0  0  0  0  0
    0.0400   -0.1019   -1.0266 C   0  0  0  0  0  0  0  0  0  0  0  0
    1.3369    0.0219   -1.5929 C   0  0  0  0  0  0  0  0  0  0  0  0
    1.5883    1.0352   -2.5458 C   0  0  0  0  0  0  0  0  0  0  0  0
    0.5563    1.8957   -2.8803 N   0  0  0  0  0  0  0  0  0  0  0  0
   -0.0509   -0.7628    0.2355 C   0  0  0  0  0  0  0  0  0  0  0  0
    0.9597   -1.6915    0.5764 C   0  0  0  0  0  0  0  0  0  0  0  0
    2.0363   -1.8672   -0.2819 N   0  0  0  0  0  0  0  0  0  0  0  0
    2.3574   -0.8703   -1.1903 C   0  0  0  0  0  0  0  0  0  0  0  0
    3.6338   -0.7115   -1.7166 C   0  0  0  0  0  0  0  0  0  0  0  0
    3.8523    0.2635   -2.6744 C   0  0  0  0  0  0  0  0  0  0  0  0
    2.8598    1.1219   -3.1029 C   0  0  0  0  0  0  0  0  0  0  0  0
   -1.0638   -0.4594    1.1815 C   0  0  0  0  0  0  0  0  0  0  0  0
   -1.1609   -1.2062    2.3422 C   0  0  0  0  0  0  0  0  0  0  0  0
   -0.2243   -2.1912    2.5969 C   0  0  0  0  0  0  0  0  0  0  0  0
    0.8551   -2.4120    1.7627 C   0  0  0  0  0  0  0  0  0  0  0  0
   -1.8608    0.6067    0.8950 O   0  0  0  0  0  0  0  0  0  0  0  0
   -2.5177   -1.2135   -0.9904 O   0  0  0  0  0  0  0  0  0  0  0  0
   -4.4906    2.6183   -3.8704 S   0  0  0  0  0  0  0  0  0  0  0  0
   -0.3945   -3.2424    4.0718 S   0  0  0  0  0  0  0  0  0  0  0  0
    5.5278    0.3980   -3.3795 S   0  0  0  0  0  0  0  0  0  0  0  0
    5.4256    1.4935   -4.3262 O   0  0  0  0  0  0  0  0  0  0  0  0
    5.4812   -1.0412   -4.2471 O   0  0  0  0  0  0  0  0  0  0  0  0
    4.6655   -1.0453   -5.3883 C   0  0  0  0  0  0  0  0  0  0  0  0
   -3.8469    3.6725   -4.6334 O   0  0  0  0  0  0  0  0  0  0  0  0
   -5.0571    3.2943   -2.4368 O   0  0  0  0  0  0  0  0  0  0  0  0
   -4.2426    4.2798   -1.8613 C   0  0  0  0  0  0  0  0  0  0  0  0
   -1.6261   -2.7865    4.6909 O   0  0  0  0  0  0  0  0  0  0  0  0
   -0.7320   -4.6610    3.2292 O   0  0  0  0  0  0  0  0  0  0  0  0
   -1.9712   -4.7013    2.5750 C   0  0  0  0  0  0  0  0  0  0  0  0
   -4.4214    0.2798   -2.2564 H   0  0  0  0  0  0  0  0  0  0  0  0
   -1.6729    2.9711   -3.9986 H   0  0  0  0  0  0  0  0  0  0  0  0
   -1.9408   -1.0548    3.0712 H   0  0  0  0  0  0  0  0  0  0  0  0
    1.5855   -3.1482    2.0525 H   0  0  0  0  0  0  0  0  0  0  0  0
    4.4652   -1.3247   -1.4090 H   0  0  0  0  0  0  0  0  0  0  0  0
    3.1186    1.8306   -3.8731 H   0  0  0  0  0  0  0  0  0  0  0  0
    1.8488   -4.2981   -0.6415 C   0  0  0  0  0  0  0  0  0  0  0  0
    2.6322   -5.6035   -0.6755 C   0  0  0  0  0  0  0  0  0  0  0  0
    0.3886    4.3010   -2.3838 C   0  0  0  0  0  0  0  0  0  0  0  0
    0.6417    5.6967   -2.9372 C   0  0  0  0  0  0  0  0  0  0  0  0
   -2.8734    0.9466    1.8088 C   0  0  0  0  0  0  0  0  0  0  0  0
   -3.8108   -1.7445   -0.8521 C   0  0  0  0  0  0  0  0  0  0  0  0
   -4.8797    4.9237   -1.2561 H   0  0  0  0  0  0  0  0  0  0  0  0
   -3.7666    4.8762   -2.6473 H   0  0  0  0  0  0  0  0  0  0  0  0
   -3.4693    3.8252   -1.2322 H   0  0  0  0  0  0  0  0  0  0  0  0
   -2.2445   -5.7482    2.4495 H   0  0  0  0  0  0  0  0  0  0  0  0
   -1.9089   -4.2131    1.5958 H   0  0  0  0  0  0  0  0  0  0  0  0
   -2.7306   -4.1974    3.1828 H   0  0  0  0  0  0  0  0  0  0  0  0
    5.0607   -1.7932   -6.0743 H   0  0  0  0  0  0  0  0  0  0  0  0
    4.6913   -0.0614   -5.8686 H   0  0  0  0  0  0  0  0  0  0  0  0
    3.6313   -1.2917   -5.1247 H   0  0  0  0  0  0  0  0  0  0  0  0
    3.2231   -3.2934    0.7066 H   0  0  0  0  0  0  0  0  0  0  0  0
    3.5568   -3.0682   -1.0112 H   0  0  0  0  0  0  0  0  0  0  0  0
    1.4097   -4.1022   -1.6222 H   0  0  0  0  0  0  0  0  0  0  0  0
    1.0329   -4.3794    0.0772 H   0  0  0  0  0  0  0  0  0  0  0  0
    3.4390   -5.5501   -1.4033 H   0  0  0  0  0  0  0  0  0  0  0  0
    1.9797   -6.4290   -0.9472 H   0  0  0  0  0  0  0  0  0  0  0  0
    3.0632   -5.8159    0.3002 H   0  0  0  0  0  0  0  0  0  0  0  0
   -3.3890    1.8010    1.3716 H   0  0  0  0  0  0  0  0  0  0  0  0
   -2.4588    1.2313    2.7813 H   0  0  0  0  0  0  0  0  0  0  0  0
   -3.5859    0.1274    1.9487 H   0  0  0  0  0  0  0  0  0  0  0  0
   -3.6990   -2.6357   -0.2352 H   0  0  0  0  0  0  0  0  0  0  0  0
   -4.2361   -2.0276   -1.8210 H   0  0  0  0  0  0  0  0  0  0  0  0
   -4.4867   -1.0427   -0.3531 H   0  0  0  0  0  0  0  0  0  0  0  0
    0.3459    6.4511   -2.2128 H   0  0  0  0  0  0  0  0  0  0  0  0
    0.0694    5.8543   -3.8485 H   0  0  0  0  0  0  0  0  0  0  0  0
    1.6962    5.8344   -3.1654 H   0  0  0  0  0  0  0  0  0  0  0  0
    0.9444    4.1613   -1.4539 H   0  0  0  0  0  0  0  0  0  0  0  0
   -0.6720    4.1836   -2.1575 H   0  0  0  0  0  0  0  0  0  0  0  0
    0.3301    3.3786   -4.3472 H   0  0  0  0  0  0  0  0  0  0  0  0
    1.8993    3.3313   -3.5470 H   0  0  0  0  0  0  0  0  0  0  0  0
  1 46  1  0  0  0  0
  1 77  1  0  0  0  0
  1 78  1  0  0  0  0
  2 44  1  0  0  0  0
  2 59  1  0  0  0  0
  2 60  1  0  0  0  0
  3  4  2  0  0  0  0
  3 38  1  0  0  0  0
  4  5  1  0  0  0  0
  4 25  1  0  0  0  0
  5  6  2  0  0  0  0
  6  7  1  0  0  0  0
  7  8  2  0  0  0  0
  7 39  1  0  0  0  0
  8  3  1  0  0  0  0
  8 26  1  0  0  0  0
  9  5  1  0  0  0  0
  9 10  1  0  0  0  0
 10 11  2  0  0  0  0
 11 12  1  0  0  0  0
 12  1  1  0  0  0  0
 12  6  1  0  0  0  0
 13 14  2  0  0  0  0
 13 20  1  0  0  0  0
 13  9  1  0  0  0  0
 14 15  1  0  0  0  0
 15  2  1  0  0  0  0
 15 16  1  0  0  0  0
 16 10  1  0  0  0  0
 16 17  2  0  0  0  0
 17 18  1  0  0  0  0
 17 42  1  0  0  0  0
 18 19  2  0  0  0  0
 18 28  1  0  0  0  0
 19 11  1  0  0  0  0
 19 43  1  0  0  0  0
 20 21  2  0  0  0  0
 21 22  1  0  0  0  0
 21 40  1  0  0  0  0
 22 23  2  0  0  0  0
 22 27  1  0  0  0  0
 23 14  1  0  0  0  0
 23 41  1  0  0  0  0
 24 48  1  0  0  0  0
 24 20  1  0  0  0  0
 25 49  1  0  0  0  0
 26 32  2  0  0  0  0
 26 33  1  0  0  0  0
 27 35  2  0  0  0  0
 27 36  1  0  0  0  0
 28 29  2  0  0  0  0
 28 30  1  0  0  0  0
 30 31  1  0  0  0  0
 31 56  1  0  0  0  0
 31 57  1  0  0  0  0
 31 58  1  0  0  0  0
 33 34  1  0  0  0  0
 34 50  1  0  0  0  0
 34 51  1  0  0  0  0
 34 52  1  0  0  0  0
 36 37  1  0  0  0  0
 37 53  1  0  0  0  0
 37 54  1  0  0  0  0
 37 55  1  0  0  0  0
 44 45  1  0  0  0  0
 44 61  1  0  0  0  0
 44 62  1  0  0  0  0
 45 63  1  0  0  0  0
 45 64  1  0  0  0  0
 45 65  1  0  0  0  0
 46 47  1  0  0  0  0
 46 75  1  0  0  0  0
 46 76  1  0  0  0  0
 47 72  1  0  0  0  0
 47 73  1  0  0  0  0
 47 74  1  0  0  0  0
 48 66  1  0  0  0  0
 48 67  1  0  0  0  0
 48 68  1  0  0  0  0
 49 69  1  0  0  0  0
 49 70  1  0  0  0  0
 49 71  1  0  0  0  0
M  END
