 energy: -260.587174305051 gnorm: 0.000186494627 xtb: 6.7.1 (edcfbbe)
          03032514163D

156164  0     0  0            999 V2000
    1.0970    4.6913   -1.5420 C   0  0  0  0  0  0  0  0  0  0  0  0
    1.1729   -2.5895   -0.8145 C   0  0  0  0  0  0  0  0  0  0  0  0
   -3.5946    2.8953   -2.6595 C   0  0  0  0  0  0  0  0  0  0  0  0
   -2.8630    1.8340   -2.1612 C   0  0  0  0  0  0  0  0  0  0  0  0
   -1.5435    2.0465   -1.6881 C   0  0  0  0  0  0  0  0  0  0  0  0
   -0.8907    3.2741   -1.9519 C   0  0  0  0  0  0  0  0  0  0  0  0
   -1.6462    4.3195   -2.4799 C   0  0  0  0  0  0  0  0  0  0  0  0
   -2.9806    4.1334   -2.7603 C   0  0  0  0  0  0  0  0  0  0  0  0
   -0.8196    1.0218   -1.0076 C   0  0  0  0  0  0  0  0  0  0  0  0
    0.5955    1.0503   -1.1623 C   0  0  0  0  0  0  0  0  0  0  0  0
    1.2362    2.2614   -1.5035 C   0  0  0  0  0  0  0  0  0  0  0  0
    0.4644    3.3957   -1.6929 N   0  0  0  0  0  0  0  0  0  0  0  0
   -1.3504    0.0224   -0.1398 C   0  0  0  0  0  0  0  0  0  0  0  0
   -0.5437   -1.1111    0.1293 C   0  0  0  0  0  0  0  0  0  0  0  0
    0.6510   -1.2658   -0.5617 N   0  0  0  0  0  0  0  0  0  0  0  0
    1.3373   -0.1341   -0.9640 C   0  0  0  0  0  0  0  0  0  0  0  0
    2.7127   -0.1114   -1.1477 C   0  0  0  0  0  0  0  0  0  0  0  0
    3.3329    1.0913   -1.4378 C   0  0  0  0  0  0  0  0  0  0  0  0
    2.6279    2.2698   -1.5971 C   0  0  0  0  0  0  0  0  0  0  0  0
   -2.5733    0.1603    0.5641 C   0  0  0  0  0  0  0  0  0  0  0  0
   -2.9777   -0.8244    1.4494 C   0  0  0  0  0  0  0  0  0  0  0  0
   -2.1409   -1.8881    1.7342 C   0  0  0  0  0  0  0  0  0  0  0  0
   -0.9257   -2.0321    1.0936 C   0  0  0  0  0  0  0  0  0  0  0  0
   -3.2549    1.3428    0.4108 O   0  0  0  0  0  0  0  0  0  0  0  0
   -3.3072    0.5428   -2.1338 O   0  0  0  0  0  0  0  0  0  0  0  0
   -4.0111    5.5631   -3.2098 S   0  0  0  0  0  0  0  0  0  0  0  0
   -2.4754   -2.9461    3.1682 S   0  0  0  0  0  0  0  0  0  0  0  0
    5.1601    1.0630   -1.4365 S   0  0  0  0  0  0  0  0  0  0  0  0
    5.5043    2.4232   -1.0413 O   0  0  0  0  0  0  0  0  0  0  0  0
    5.3831    0.9540   -3.0959 O   0  0  0  0  0  0  0  0  0  0  0  0
    5.2115    2.1283   -3.8397 C   0  0  0  0  0  0  0  0  0  0  0  0
   -3.0631    6.6365   -3.4508 O   0  0  0  0  0  0  0  0  0  0  0  0
   -4.6566    5.7765   -1.6764 O   0  0  0  0  0  0  0  0  0  0  0  0
   -3.7767    6.2843   -0.7020 C   0  0  0  0  0  0  0  0  0  0  0  0
   -3.9187   -2.8823    3.3430 O   0  0  0  0  0  0  0  0  0  0  0  0
   -2.1611   -4.4138    2.3784 O   0  0  0  0  0  0  0  0  0  0  0  0
   -3.1207   -4.8168    1.4413 C   0  0  0  0  0  0  0  0  0  0  0  0
   -4.6238    2.7968   -2.9636 H   0  0  0  0  0  0  0  0  0  0  0  0
   -1.2458    5.2984   -2.6865 H   0  0  0  0  0  0  0  0  0  0  0  0
   -3.9182   -0.7703    1.9730 H   0  0  0  0  0  0  0  0  0  0  0  0
   -0.2909   -2.8586    1.3643 H   0  0  0  0  0  0  0  0  0  0  0  0
    3.3338   -0.9802   -1.0156 H   0  0  0  0  0  0  0  0  0  0  0  0
    3.1914    3.1692   -1.7774 H   0  0  0  0  0  0  0  0  0  0  0  0
    0.1434   -3.4667   -1.5357 C   0  0  0  0  0  0  0  0  0  0  0  0
    0.7452   -4.8011   -1.9566 C   0  0  0  0  0  0  0  0  0  0  0  0
    1.4778    4.9507   -0.0811 C   0  0  0  0  0  0  0  0  0  0  0  0
    2.0616    6.3455    0.0969 C   0  0  0  0  0  0  0  0  0  0  0  0
   -4.6151    1.3760    0.7761 C   0  0  0  0  0  0  0  0  0  0  0  0
   -4.5506    0.2599   -2.7225 C   0  0  0  0  0  0  0  0  0  0  0  0
   -4.3872    6.7042    0.0959 H   0  0  0  0  0  0  0  0  0  0  0  0
   -3.1571    7.0733   -1.1406 H   0  0  0  0  0  0  0  0  0  0  0  0
   -3.1325    5.4946   -0.3043 H   0  0  0  0  0  0  0  0  0  0  0  0
   -3.0680   -5.9014    1.3486 H   0  0  0  0  0  0  0  0  0  0  0  0
   -2.9328   -4.3514    0.4670 H   0  0  0  0  0  0  0  0  0  0  0  0
   -4.1176   -4.5277    1.7888 H   0  0  0  0  0  0  0  0  0  0  0  0
    5.8764    2.0789   -4.7017 H   0  0  0  0  0  0  0  0  0  0  0  0
    5.4777    2.9973   -3.2276 H   0  0  0  0  0  0  0  0  0  0  0  0
    4.1746    2.2233   -4.1792 H   0  0  0  0  0  0  0  0  0  0  0  0
    1.4974   -3.0656    0.1183 H   0  0  0  0  0  0  0  0  0  0  0  0
    2.0424   -2.4866   -1.4634 H   0  0  0  0  0  0  0  0  0  0  0  0
   -0.2116   -2.9279   -2.4166 H   0  0  0  0  0  0  0  0  0  0  0  0
   -0.7144   -3.6425   -0.8863 H   0  0  0  0  0  0  0  0  0  0  0  0
    1.5908   -4.6505   -2.6246 H   0  0  0  0  0  0  0  0  0  0  0  0
    0.0028   -5.4018   -2.4758 H   0  0  0  0  0  0  0  0  0  0  0  0
    1.0853   -5.3595   -1.0875 H   0  0  0  0  0  0  0  0  0  0  0  0
   -5.0144    2.2953    0.3489 H   0  0  0  0  0  0  0  0  0  0  0  0
   -4.7466    1.4044    1.8620 H   0  0  0  0  0  0  0  0  0  0  0  0
   -5.1531    0.5148    0.3708 H   0  0  0  0  0  0  0  0  0  0  0  0
   -4.6779   -0.8188   -2.6368 H   0  0  0  0  0  0  0  0  0  0  0  0
   -4.5665    0.5433   -3.7805 H   0  0  0  0  0  0  0  0  0  0  0  0
   -5.3746    0.7623   -2.2052 H   0  0  0  0  0  0  0  0  0  0  0  0
    2.3150    6.5211    1.1395 H   0  0  0  0  0  0  0  0  0  0  0  0
    1.3470    7.1042   -0.2138 H   0  0  0  0  0  0  0  0  0  0  0  0
    2.9659    6.4599   -0.4972 H   0  0  0  0  0  0  0  0  0  0  0  0
    2.2064    4.2072    0.2469 H   0  0  0  0  0  0  0  0  0  0  0  0
    0.5723    4.8439    0.5192 H   0  0  0  0  0  0  0  0  0  0  0  0
    0.4064    5.4693   -1.8531 H   0  0  0  0  0  0  0  0  0  0  0  0
    1.9771    4.7564   -2.1884 H   0  0  0  0  0  0  0  0  0  0  0  0
    2.6169    1.7629    2.0571 C   0  0  0  0  0  0  0  0  0  0  0  0
    1.4433   -5.2899    3.5277 C   0  0  0  0  0  0  0  0  0  0  0  0
   -2.2460    1.3007    3.4677 C   0  0  0  0  0  0  0  0  0  0  0  0
   -1.6081    0.1549    3.9077 C   0  0  0  0  0  0  0  0  0  0  0  0
   -0.2389   -0.0615    3.6008 C   0  0  0  0  0  0  0  0  0  0  0  0
    0.4274    0.8676    2.7634 C   0  0  0  0  0  0  0  0  0  0  0  0
   -0.2764    1.9452    2.2361 C   0  0  0  0  0  0  0  0  0  0  0  0
   -1.5831    2.1626    2.6104 C   0  0  0  0  0  0  0  0  0  0  0  0
    0.4610   -1.2441    3.9843 C   0  0  0  0  0  0  0  0  0  0  0  0
    1.5911   -1.6102    3.2060 C   0  0  0  0  0  0  0  0  0  0  0  0
    2.2704   -0.6233    2.4592 C   0  0  0  0  0  0  0  0  0  0  0  0
    1.7607    0.6591    2.4428 N   0  0  0  0  0  0  0  0  0  0  0  0
    0.1192   -2.1287    5.0531 C   0  0  0  0  0  0  0  0  0  0  0  0
    0.4566   -3.4992    4.9340 C   0  0  0  0  0  0  0  0  0  0  0  0
    1.2894   -3.8972    3.8984 N   0  0  0  0  0  0  0  0  0  0  0  0
    2.0448   -2.9483    3.2211 C   0  0  0  0  0  0  0  0  0  0  0  0
    3.2186   -3.2659    2.5422 C   0  0  0  0  0  0  0  0  0  0  0  0
    3.8873   -2.2784    1.8386 C   0  0  0  0  0  0  0  0  0  0  0  0
    3.4363   -0.9716    1.7884 C   0  0  0  0  0  0  0  0  0  0  0  0
   -0.4828   -1.6559    6.2458 C   0  0  0  0  0  0  0  0  0  0  0  0
   -0.9933   -2.5619    7.1573 C   0  0  0  0  0  0  0  0  0  0  0  0
   -0.8207   -3.9123    6.9229 C   0  0  0  0  0  0  0  0  0  0  0  0
   -0.0500   -4.3880    5.8797 C   0  0  0  0  0  0  0  0  0  0  0  0
   -0.4782   -0.3067    6.4291 O   0  0  0  0  0  0  0  0  0  0  0  0
   -2.2649   -0.8613    4.5460 O   0  0  0  0  0  0  0  0  0  0  0  0
   -2.5636    3.4313    1.7662 S   0  0  0  0  0  0  0  0  0  0  0  0
   -1.6248   -5.1238    8.0207 S   0  0  0  0  0  0  0  0  0  0  0  0
    5.4841   -2.6259    1.0227 S   0  0  0  0  0  0  0  0  0  0  0  0
    5.4569   -1.7460   -0.1388 O   0  0  0  0  0  0  0  0  0  0  0  0
    5.1551   -4.1885    0.4927 O   0  0  0  0  0  0  0  0  0  0  0  0
    4.5617   -4.3364   -0.7690 C   0  0  0  0  0  0  0  0  0  0  0  0
   -1.6187    4.0700    0.8635 O   0  0  0  0  0  0  0  0  0  0  0  0
   -2.7282    4.4640    3.0928 O   0  0  0  0  0  0  0  0  0  0  0  0
   -1.5677    5.1323    3.5030 C   0  0  0  0  0  0  0  0  0  0  0  0
   -2.4217   -4.3019    8.9149 O   0  0  0  0  0  0  0  0  0  0  0  0
   -2.6363   -5.7691    6.8542 O   0  0  0  0  0  0  0  0  0  0  0  0
   -3.6666   -4.9380    6.3801 C   0  0  0  0  0  0  0  0  0  0  0  0
   -3.2713    1.5107    3.7254 H   0  0  0  0  0  0  0  0  0  0  0  0
    0.1465    2.6074    1.4989 H   0  0  0  0  0  0  0  0  0  0  0  0
   -1.5328   -2.2671    8.0426 H   0  0  0  0  0  0  0  0  0  0  0  0
    0.1167   -5.4507    5.8356 H   0  0  0  0  0  0  0  0  0  0  0  0
    3.6313   -4.2607    2.5444 H   0  0  0  0  0  0  0  0  0  0  0  0
    3.9994   -0.2620    1.2079 H   0  0  0  0  0  0  0  0  0  0  0  0
    0.9919   -5.5519    2.0876 C   0  0  0  0  0  0  0  0  0  0  0  0
    1.1432   -7.0254    1.7328 C   0  0  0  0  0  0  0  0  0  0  0  0
    3.8093    1.9450    3.0025 C   0  0  0  0  0  0  0  0  0  0  0  0
    4.7020    3.0744    2.5017 C   0  0  0  0  0  0  0  0  0  0  0  0
   -0.9666    0.1941    7.6495 C   0  0  0  0  0  0  0  0  0  0  0  0
   -3.5309   -0.5980    5.1087 C   0  0  0  0  0  0  0  0  0  0  0  0
   -1.8718    6.0208    4.0550 H   0  0  0  0  0  0  0  0  0  0  0  0
   -0.9820    5.4317    2.6276 H   0  0  0  0  0  0  0  0  0  0  0  0
   -0.9540    4.4896    4.1440 H   0  0  0  0  0  0  0  0  0  0  0  0
   -4.4886   -5.5808    6.0679 H   0  0  0  0  0  0  0  0  0  0  0  0
   -3.3253   -4.3363    5.5317 H   0  0  0  0  0  0  0  0  0  0  0  0
   -4.0106   -4.2796    7.1849 H   0  0  0  0  0  0  0  0  0  0  0  0
    5.0429   -5.1733   -1.2755 H   0  0  0  0  0  0  0  0  0  0  0  0
    4.7117   -3.4252   -1.3589 H   0  0  0  0  0  0  0  0  0  0  0  0
    3.4914   -4.5334   -0.6656 H   0  0  0  0  0  0  0  0  0  0  0  0
    0.8268   -5.9031    4.1781 H   0  0  0  0  0  0  0  0  0  0  0  0
    2.4838   -5.6052    3.6648 H   0  0  0  0  0  0  0  0  0  0  0  0
    1.5865   -4.9500    1.3981 H   0  0  0  0  0  0  0  0  0  0  0  0
   -0.0540   -5.2542    1.9963 H   0  0  0  0  0  0  0  0  0  0  0  0
    2.1841   -7.3349    1.8072 H   0  0  0  0  0  0  0  0  0  0  0  0
    0.8032   -7.2102    0.7167 H   0  0  0  0  0  0  0  0  0  0  0  0
    0.5524   -7.6426    2.4054 H   0  0  0  0  0  0  0  0  0  0  0  0
   -0.8322    1.2739    7.5987 H   0  0  0  0  0  0  0  0  0  0  0  0
   -0.4013   -0.2031    8.4988 H   0  0  0  0  0  0  0  0  0  0  0  0
   -2.0279   -0.0329    7.7894 H   0  0  0  0  0  0  0  0  0  0  0  0
   -3.7561   -1.4586    5.7362 H   0  0  0  0  0  0  0  0  0  0  0  0
   -4.3059   -0.5218    4.3425 H   0  0  0  0  0  0  0  0  0  0  0  0
   -3.5147    0.3126    5.7133 H   0  0  0  0  0  0  0  0  0  0  0  0
    5.5615    3.1955    3.1553 H   0  0  0  0  0  0  0  0  0  0  0  0
    4.1544    4.0141    2.4801 H   0  0  0  0  0  0  0  0  0  0  0  0
    5.0615    2.8641    1.4966 H   0  0  0  0  0  0  0  0  0  0  0  0
    4.3874    1.0232    3.0666 H   0  0  0  0  0  0  0  0  0  0  0  0
    3.4380    2.1740    4.0040 H   0  0  0  0  0  0  0  0  0  0  0  0
    2.0295    2.6779    2.0912 H   0  0  0  0  0  0  0  0  0  0  0  0
    2.9760    1.6277    1.0331 H   0  0  0  0  0  0  0  0  0  0  0  0
  1 46  1  0  0  0  0
  1 77  1  0  0  0  0
  1 78  1  0  0  0  0
  2 44  1  0  0  0  0
  2 59  1  0  0  0  0
  2 60  1  0  0  0  0
  3  4  2  0  0  0  0
  3 38  1  0  0  0  0
  4  5  1  0  0  0  0
  4 25  1  0  0  0  0
  5  6  2  0  0  0  0
  6  7  1  0  0  0  0
  7  8  2  0  0  0  0
  7 39  1  0  0  0  0
  8  3  1  0  0  0  0
  8 26  1  0  0  0  0
  9  5  1  0  0  0  0
  9 10  1  0  0  0  0
 10 11  2  0  0  0  0
 11 12  1  0  0  0  0
 12  1  1  0  0  0  0
 12  6  1  0  0  0  0
 13 14  2  0  0  0  0
 13 20  1  0  0  0  0
 13  9  1  0  0  0  0
 14 15  1  0  0  0  0
 15  2  1  0  0  0  0
 15 16  1  0  0  0  0
 16 10  1  0  0  0  0
 16 17  2  0  0  0  0
 17 18  1  0  0  0  0
 17 42  1  0  0  0  0
 18 19  2  0  0  0  0
 18 28  1  0  0  0  0
 19 11  1  0  0  0  0
 19 43  1  0  0  0  0
 20 21  2  0  0  0  0
 21 22  1  0  0  0  0
 21 40  1  0  0  0  0
 22 23  2  0  0  0  0
 22 27  1  0  0  0  0
 23 14  1  0  0  0  0
 23 41  1  0  0  0  0
 24 48  1  0  0  0  0
 24 20  1  0  0  0  0
 25 49  1  0  0  0  0
 26 32  2  0  0  0  0
 26 33  1  0  0  0  0
 27 35  2  0  0  0  0
 27 36  1  0  0  0  0
 28 29  2  0  0  0  0
 28 30  1  0  0  0  0
 30 31  1  0  0  0  0
 31 56  1  0  0  0  0
 31 57  1  0  0  0  0
 31 58  1  0  0  0  0
 33 34  1  0  0  0  0
 34 50  1  0  0  0  0
 34 51  1  0  0  0  0
 34 52  1  0  0  0  0
 36 37  1  0  0  0  0
 37 53  1  0  0  0  0
 37 54  1  0  0  0  0
 37 55  1  0  0  0  0
 44 45  1  0  0  0  0
 44 61  1  0  0  0  0
 44 62  1  0  0  0  0
 45 63  1  0  0  0  0
 45 64  1  0  0  0  0
 45 65  1  0  0  0  0
 46 47  1  0  0  0  0
 46 75  1  0  0  0  0
 46 76  1  0  0  0  0
 47 72  1  0  0  0  0
 47 73  1  0  0  0  0
 47 74  1  0  0  0  0
 48 66  1  0  0  0  0
 48 67  1  0  0  0  0
 48 68  1  0  0  0  0
 49 69  1  0  0  0  0
 49 70  1  0  0  0  0
 49 71  1  0  0  0  0
 79124  1  0  0  0  0
 79155  1  0  0  0  0
 79156  1  0  0  0  0
 80122  1  0  0  0  0
 80137  1  0  0  0  0
 80138  1  0  0  0  0
 81 82  2  0  0  0  0
 81116  1  0  0  0  0
 82 83  1  0  0  0  0
 82103  1  0  0  0  0
 83 84  2  0  0  0  0
 84 85  1  0  0  0  0
 85 86  2  0  0  0  0
 85117  1  0  0  0  0
 86 81  1  0  0  0  0
 86104  1  0  0  0  0
 87 83  1  0  0  0  0
 87 88  1  0  0  0  0
 88 89  2  0  0  0  0
 89 90  1  0  0  0  0
 90 79  1  0  0  0  0
 90 84  1  0  0  0  0
 91 92  2  0  0  0  0
 91 98  1  0  0  0  0
 91 87  1  0  0  0  0
 92 93  1  0  0  0  0
 93 80  1  0  0  0  0
 93 94  1  0  0  0  0
 94 88  1  0  0  0  0
 94 95  2  0  0  0  0
 95 96  1  0  0  0  0
 95120  1  0  0  0  0
 96 97  2  0  0  0  0
 96106  1  0  0  0  0
 97 89  1  0  0  0  0
 97121  1  0  0  0  0
 98 99  2  0  0  0  0
 99100  1  0  0  0  0
 99118  1  0  0  0  0
100101  2  0  0  0  0
100105  1  0  0  0  0
101 92  1  0  0  0  0
101119  1  0  0  0  0
102126  1  0  0  0  0
102 98  1  0  0  0  0
103127  1  0  0  0  0
104110  2  0  0  0  0
104111  1  0  0  0  0
105113  2  0  0  0  0
105114  1  0  0  0  0
106107  2  0  0  0  0
106108  1  0  0  0  0
108109  1  0  0  0  0
109134  1  0  0  0  0
109135  1  0  0  0  0
109136  1  0  0  0  0
111112  1  0  0  0  0
112128  1  0  0  0  0
112129  1  0  0  0  0
112130  1  0  0  0  0
114115  1  0  0  0  0
115131  1  0  0  0  0
115132  1  0  0  0  0
115133  1  0  0  0  0
122123  1  0  0  0  0
122139  1  0  0  0  0
122140  1  0  0  0  0
123141  1  0  0  0  0
123142  1  0  0  0  0
123143  1  0  0  0  0
124125  1  0  0  0  0
124153  1  0  0  0  0
124154  1  0  0  0  0
125150  1  0  0  0  0
125151  1  0  0  0  0
125152  1  0  0  0  0
126144  1  0  0  0  0
126145  1  0  0  0  0
126146  1  0  0  0  0
127147  1  0  0  0  0
127148  1  0  0  0  0
127149  1  0  0  0  0
M  END
