 energy: -196.159859074280 gnorm: 0.000182927667 xtb: 6.7.1 (edcfbbe)
          03242511323D

137148  0     0  0            999 V2000
   -0.8925   -2.0408    1.3237 C   0  0  0  0  0  0  0  0  0  0  0  0
   -1.3548   -0.9138    0.6483 C   0  0  0  0  0  0  0  0  0  0  0  0
   -2.5972   -0.9625   -0.0481 C   0  0  0  0  0  0  0  0  0  0  0  0
   -3.1823   -2.2720   -0.1650 C   0  0  0  0  0  0  0  0  0  0  0  0
   -2.6251   -3.3966    0.4838 C   0  0  0  0  0  0  0  0  0  0  0  0
   -1.5328   -3.2815    1.3062 C   0  0  0  0  0  0  0  0  0  0  0  0
   -3.4156    0.1432   -0.4704 C   0  0  0  0  0  0  0  0  0  0  0  0
   -4.7345   -0.1689   -0.8627 C   0  0  0  0  0  0  0  0  0  0  0  0
   -5.1200   -1.5108   -1.1221 C   0  0  0  0  0  0  0  0  0  0  0  0
   -4.3330   -2.5316   -0.7970 N   0  0  0  0  0  0  0  0  0  0  0  0
   -3.1381    1.5505   -0.3893 C   0  0  0  0  0  0  0  0  0  0  0  0
   -4.2637    2.4313   -0.2382 C   0  0  0  0  0  0  0  0  0  0  0  0
   -5.5173    2.0824   -0.5341 N   0  0  0  0  0  0  0  0  0  0  0  0
   -5.7316    0.8405   -0.9724 C   0  0  0  0  0  0  0  0  0  0  0  0
   -7.0015    0.5096   -1.4760 C   0  0  0  0  0  0  0  0  0  0  0  0
   -7.3262   -0.7837   -1.8701 C   0  0  0  0  0  0  0  0  0  0  0  0
   -6.3897   -1.7839   -1.6771 C   0  0  0  0  0  0  0  0  0  0  0  0
   -1.8780    2.1809   -0.4992 C   0  0  0  0  0  0  0  0  0  0  0  0
   -1.7294    3.4949   -0.0726 C   0  0  0  0  0  0  0  0  0  0  0  0
   -2.8054    4.2864    0.3370 C   0  0  0  0  0  0  0  0  0  0  0  0
   -4.0670    3.7636    0.1829 C   0  0  0  0  0  0  0  0  0  0  0  0
   -0.6089    0.1803    0.8265 O   0  0  0  0  0  0  0  0  0  0  0  0
   -0.8553    1.5630   -1.1021 O   0  0  0  0  0  0  0  0  0  0  0  0
    0.1039    0.8480   -0.2690 B   0  0  0  0  0  0  0  0  0  0  0  0
    1.0694   -2.3116   -1.2386 C   0  0  0  0  0  0  0  0  0  0  0  0
    1.5433   -1.0775   -0.8004 C   0  0  0  0  0  0  0  0  0  0  0  0
    2.7785   -0.9998   -0.0946 C   0  0  0  0  0  0  0  0  0  0  0  0
    3.3429   -2.2660    0.2923 C   0  0  0  0  0  0  0  0  0  0  0  0
    2.7741   -3.4916   -0.1217 C   0  0  0  0  0  0  0  0  0  0  0  0
    1.6906   -3.5314   -0.9623 C   0  0  0  0  0  0  0  0  0  0  0  0
    3.6084    0.1590    0.1038 C   0  0  0  0  0  0  0  0  0  0  0  0
    4.9186   -0.0832    0.5682 C   0  0  0  0  0  0  0  0  0  0  0  0
    5.2814   -1.3499    1.0999 C   0  0  0  0  0  0  0  0  0  0  0  0
    4.4828   -2.4068    0.9784 N   0  0  0  0  0  0  0  0  0  0  0  0
    3.3527    1.5229   -0.2681 C   0  0  0  0  0  0  0  0  0  0  0  0
    4.4936    2.3384   -0.5817 C   0  0  0  0  0  0  0  0  0  0  0  0
    5.7385    2.0411   -0.2026 N   0  0  0  0  0  0  0  0  0  0  0  0
    5.9295    0.9136    0.4832 C   0  0  0  0  0  0  0  0  0  0  0  0
    7.1935    0.6825    1.0615 C   0  0  0  0  0  0  0  0  0  0  0  0
    7.4925   -0.5043    1.7120 C   0  0  0  0  0  0  0  0  0  0  0  0
    6.5396   -1.5138    1.7122 C   0  0  0  0  0  0  0  0  0  0  0  0
    2.1018    2.1805   -0.3069 C   0  0  0  0  0  0  0  0  0  0  0  0
    1.9795    3.3799   -0.9976 C   0  0  0  0  0  0  0  0  0  0  0  0
    3.0724    4.0549   -1.5468 C   0  0  0  0  0  0  0  0  0  0  0  0
    4.3236    3.5578   -1.2706 C   0  0  0  0  0  0  0  0  0  0  0  0
    1.0634    1.7182    0.3995 O   0  0  0  0  0  0  0  0  0  0  0  0
    0.8149   -0.0322   -1.2029 O   0  0  0  0  0  0  0  0  0  0  0  0
   -1.0967   -4.3926    2.2483 C   0  0  0  0  0  0  0  0  0  0  0  0
    0.4145   -4.3586    2.5040 C   0  0  0  0  0  0  0  0  0  0  0  0
   -1.4809   -5.7816    1.7261 C   0  0  0  0  0  0  0  0  0  0  0  0
   -1.8338   -4.1498    3.5759 C   0  0  0  0  0  0  0  0  0  0  0  0
   -2.6218    5.6990    0.8724 C   0  0  0  0  0  0  0  0  0  0  0  0
   -3.2839    5.7868    2.2545 C   0  0  0  0  0  0  0  0  0  0  0  0
   -1.1484    6.0851    1.0249 C   0  0  0  0  0  0  0  0  0  0  0  0
   -3.2876    6.6953   -0.0865 C   0  0  0  0  0  0  0  0  0  0  0  0
   -8.7056   -1.0493   -2.4584 C   0  0  0  0  0  0  0  0  0  0  0  0
   -8.8997   -2.5110   -2.8698 C   0  0  0  0  0  0  0  0  0  0  0  0
   -8.8922   -0.1732   -3.7048 C   0  0  0  0  0  0  0  0  0  0  0  0
   -9.7727   -0.6979   -1.4127 C   0  0  0  0  0  0  0  0  0  0  0  0
    1.2416   -4.8042   -1.6626 C   0  0  0  0  0  0  0  0  0  0  0  0
   -0.2702   -4.8059   -1.9181 C   0  0  0  0  0  0  0  0  0  0  0  0
    1.6136   -6.0642   -0.8730 C   0  0  0  0  0  0  0  0  0  0  0  0
    1.9772   -4.8400   -3.0125 C   0  0  0  0  0  0  0  0  0  0  0  0
    2.9177    5.3291   -2.3643 C   0  0  0  0  0  0  0  0  0  0  0  0
    3.5967    5.1213   -3.7252 C   0  0  0  0  0  0  0  0  0  0  0  0
    3.5888    6.4926   -1.6216 C   0  0  0  0  0  0  0  0  0  0  0  0
    1.4526    5.6955   -2.6143 C   0  0  0  0  0  0  0  0  0  0  0  0
    8.8343   -0.7508    2.3894 C   0  0  0  0  0  0  0  0  0  0  0  0
    9.7626    0.4647    2.3198 C   0  0  0  0  0  0  0  0  0  0  0  0
    8.5903   -1.0811    3.8682 C   0  0  0  0  0  0  0  0  0  0  0  0
    9.5352   -1.9304    1.7020 C   0  0  0  0  0  0  0  0  0  0  0  0
  -10.7687   -0.8885   -1.8099 H   0  0  0  0  0  0  0  0  0  0  0  0
   -9.7121    0.3482   -1.1265 H   0  0  0  0  0  0  0  0  0  0  0  0
   -9.6340   -1.3030   -0.5191 H   0  0  0  0  0  0  0  0  0  0  0  0
   -9.8888   -2.6384   -3.3078 H   0  0  0  0  0  0  0  0  0  0  0  0
   -8.8237   -3.1715   -2.0096 H   0  0  0  0  0  0  0  0  0  0  0  0
   -8.1601   -2.8071   -3.6098 H   0  0  0  0  0  0  0  0  0  0  0  0
   -9.8719   -0.3481   -4.1470 H   0  0  0  0  0  0  0  0  0  0  0  0
   -8.1308   -0.4097   -4.4452 H   0  0  0  0  0  0  0  0  0  0  0  0
   -8.8104    0.8819   -3.4599 H   0  0  0  0  0  0  0  0  0  0  0  0
   -1.5486   -4.9011    4.3109 H   0  0  0  0  0  0  0  0  0  0  0  0
   -2.9106   -4.1977    3.4262 H   0  0  0  0  0  0  0  0  0  0  0  0
   -1.5892   -3.1658    3.9690 H   0  0  0  0  0  0  0  0  0  0  0  0
    0.7286   -5.2698    3.0113 H   0  0  0  0  0  0  0  0  0  0  0  0
    0.6872   -3.5190    3.1371 H   0  0  0  0  0  0  0  0  0  0  0  0
    0.9640   -4.2688    1.5708 H   0  0  0  0  0  0  0  0  0  0  0  0
   -1.0941   -6.5474    2.3971 H   0  0  0  0  0  0  0  0  0  0  0  0
   -1.0682   -5.9515    0.7359 H   0  0  0  0  0  0  0  0  0  0  0  0
   -2.5603   -5.8986    1.6773 H   0  0  0  0  0  0  0  0  0  0  0  0
   -0.5961   -5.7977   -2.2286 H   0  0  0  0  0  0  0  0  0  0  0  0
   -0.5359   -4.1100   -2.7088 H   0  0  0  0  0  0  0  0  0  0  0  0
   -0.8154   -4.5213   -1.0223 H   0  0  0  0  0  0  0  0  0  0  0  0
    1.6821   -5.7201   -3.5819 H   0  0  0  0  0  0  0  0  0  0  0  0
    3.0539   -4.8685   -2.8571 H   0  0  0  0  0  0  0  0  0  0  0  0
    1.7416   -3.9521   -3.5945 H   0  0  0  0  0  0  0  0  0  0  0  0
    1.2180   -6.9450   -1.3770 H   0  0  0  0  0  0  0  0  0  0  0  0
    1.2014   -6.0284    0.1313 H   0  0  0  0  0  0  0  0  0  0  0  0
    2.6919   -6.1794   -0.8021 H   0  0  0  0  0  0  0  0  0  0  0  0
   -3.1712    6.7887    2.6666 H   0  0  0  0  0  0  0  0  0  0  0  0
   -2.8178    5.0774    2.9347 H   0  0  0  0  0  0  0  0  0  0  0  0
   -4.3438    5.5555    2.1960 H   0  0  0  0  0  0  0  0  0  0  0  0
    3.4773    7.4168   -2.1870 H   0  0  0  0  0  0  0  0  0  0  0  0
    4.6486    6.3031   -1.4763 H   0  0  0  0  0  0  0  0  0  0  0  0
    3.1299    6.6263   -0.6442 H   0  0  0  0  0  0  0  0  0  0  0  0
   -1.0735    7.0709    1.4829 H   0  0  0  0  0  0  0  0  0  0  0  0
   -0.6556    6.1279    0.0566 H   0  0  0  0  0  0  0  0  0  0  0  0
   -0.6230    5.3739    1.6573 H   0  0  0  0  0  0  0  0  0  0  0  0
   -3.1555    7.7142    0.2751 H   0  0  0  0  0  0  0  0  0  0  0  0
   -4.3519    6.4973   -0.1776 H   0  0  0  0  0  0  0  0  0  0  0  0
   -2.8411    6.6175   -1.0756 H   0  0  0  0  0  0  0  0  0  0  0  0
    3.5050    6.0183   -4.3363 H   0  0  0  0  0  0  0  0  0  0  0  0
    3.1268    4.2933   -4.2514 H   0  0  0  0  0  0  0  0  0  0  0  0
    4.6519    4.8925   -3.6051 H   0  0  0  0  0  0  0  0  0  0  0  0
    1.3989    6.5666   -3.2666 H   0  0  0  0  0  0  0  0  0  0  0  0
    0.9496    5.9439   -1.6828 H   0  0  0  0  0  0  0  0  0  0  0  0
    0.9229    4.8764   -3.0941 H   0  0  0  0  0  0  0  0  0  0  0  0
    9.6930   -1.7087    0.6484 H   0  0  0  0  0  0  0  0  0  0  0  0
    8.9392   -2.8358    1.7724 H   0  0  0  0  0  0  0  0  0  0  0  0
   10.5025   -2.1179    2.1658 H   0  0  0  0  0  0  0  0  0  0  0  0
    8.0839   -0.2515    4.3574 H   0  0  0  0  0  0  0  0  0  0  0  0
    9.5365   -1.2583    4.3775 H   0  0  0  0  0  0  0  0  0  0  0  0
    7.9715   -1.9672    3.9761 H   0  0  0  0  0  0  0  0  0  0  0  0
    9.3058    1.3300    2.7939 H   0  0  0  0  0  0  0  0  0  0  0  0
   10.0045    0.7124    1.2891 H   0  0  0  0  0  0  0  0  0  0  0  0
   10.6929    0.2433    2.8413 H   0  0  0  0  0  0  0  0  0  0  0  0
    7.9080    1.4823    0.9662 H   0  0  0  0  0  0  0  0  0  0  0  0
    6.7355   -2.4794    2.1511 H   0  0  0  0  0  0  0  0  0  0  0  0
    3.3072   -4.3744    0.1910 H   0  0  0  0  0  0  0  0  0  0  0  0
    5.2278    4.0831   -1.5349 H   0  0  0  0  0  0  0  0  0  0  0  0
   -4.9601    4.3468    0.3434 H   0  0  0  0  0  0  0  0  0  0  0  0
   -3.1731   -4.3164    0.3613 H   0  0  0  0  0  0  0  0  0  0  0  0
   -7.7141    1.3167   -1.5418 H   0  0  0  0  0  0  0  0  0  0  0  0
   -6.5921   -2.8164   -1.9060 H   0  0  0  0  0  0  0  0  0  0  0  0
    0.1719   -2.2687   -1.8341 H   0  0  0  0  0  0  0  0  0  0  0  0
    0.0118   -1.8915    1.8910 H   0  0  0  0  0  0  0  0  0  0  0  0
   -0.7267    3.8821   -0.0736 H   0  0  0  0  0  0  0  0  0  0  0  0
    0.9835    3.7738   -1.0892 H   0  0  0  0  0  0  0  0  0  0  0  0
  1135  1  0  0  0  0
  2  1  1  0  0  0  0
  2 22  1  0  0  0  0
  3  7  1  0  0  0  0
  3  2  2  0  0  0  0
  4  3  1  0  0  0  0
  5  4  2  0  0  0  0
  5  6  1  0  0  0  0
  6 48  1  0  0  0  0
  6  1  3  0  0  0  0
  7 11  1  0  0  0  0
  7  8  1  0  0  0  0
  9 17  1  0  0  0  0
  9  8  1  0  0  0  0
 10  4  1  0  0  0  0
 10  9  1  0  0  0  0
 11 18  2  0  0  0  0
 11 12  1  0  0  0  0
 12 21  2  0  0  0  0
 13 12  1  0  0  0  0
 14 13  1  0  0  0  0
 14  8  1  0  0  0  0
 15 16  1  0  0  0  0
 15 14  2  0  0  0  0
 16 17  1  0  0  0  0
 18 19  1  0  0  0  0
 19 20  2  0  0  0  0
 19136  1  0  0  0  0
 21 20  1  0  0  0  0
 23 18  1  0  0  0  0
 24 23  1  0  0  0  0
 24 22  1  0  0  0  0
 24 46  1  0  0  0  0
 25 26  1  0  0  0  0
 25134  1  0  0  0  0
 27 26  1  0  0  0  0
 27 31  2  0  0  0  0
 28 34  2  0  0  0  0
 28 27  1  0  0  0  0
 29 28  1  0  0  0  0
 29128  1  0  0  0  0
 29 30  1  0  0  0  0
 30 25  1  0  0  0  0
 30 60  1  0  0  0  0
 31 35  1  0  0  0  0
 32 31  1  0  0  0  0
 32 38  1  0  0  0  0
 33 32  2  0  0  0  0
 33 41  1  0  0  0  0
 34 33  1  0  0  0  0
 35 36  2  0  0  0  0
 35 42  1  0  0  0  0
 36 37  1  0  0  0  0
 38 37  1  0  0  0  0
 38 39  2  0  0  0  0
 39126  1  0  0  0  0
 40 39  1  0  0  0  0
 41127  1  0  0  0  0
 41 40  2  0  0  0  0
 42 46  1  0  0  0  0
 43 42  2  0  0  0  0
 43137  1  0  0  0  0
 44 45  2  0  0  0  0
 44 43  1  0  0  0  0
 45129  1  0  0  0  0
 45 36  1  0  0  0  0
 47 26  1  0  0  0  0
 47 24  1  0  0  0  0
 48 49  1  0  0  0  0
 49 84  1  0  0  0  0
 49 85  1  0  0  0  0
 49 86  1  0  0  0  0
 50 87  1  0  0  0  0
 50 48  1  0  0  0  0
 50 88  1  0  0  0  0
 51 83  1  0  0  0  0
 51 48  1  0  0  0  0
 52 20  1  0  0  0  0
 52 53  1  0  0  0  0
 52 54  1  0  0  0  0
 53100  1  0  0  0  0
 54107  1  0  0  0  0
 55 52  1  0  0  0  0
 56 16  1  0  0  0  0
 56 59  1  0  0  0  0
 57 56  1  0  0  0  0
 58 78  1  0  0  0  0
 58 56  1  0  0  0  0
 58 80  1  0  0  0  0
 59 72  1  0  0  0  0
 59 74  1  0  0  0  0
 59 73  1  0  0  0  0
 60 63  1  0  0  0  0
 60 62  1  0  0  0  0
 61 90  1  0  0  0  0
 61 60  1  0  0  0  0
 62 97  1  0  0  0  0
 62 96  1  0  0  0  0
 62 98  1  0  0  0  0
 63 94  1  0  0  0  0
 64 66  1  0  0  0  0
 64 44  1  0  0  0  0
 65113  1  0  0  0  0
 65 64  1  0  0  0  0
 66103  1  0  0  0  0
 66104  1  0  0  0  0
 67 64  1  0  0  0  0
 67115  1  0  0  0  0
 68 40  1  0  0  0  0
 68 70  1  0  0  0  0
 69123  1  0  0  0  0
 69 68  1  0  0  0  0
 70121  1  0  0  0  0
 70122  1  0  0  0  0
 70120  1  0  0  0  0
 71119  1  0  0  0  0
 71118  1  0  0  0  0
 71 68  1  0  0  0  0
 75 57  1  0  0  0  0
 76 57  1  0  0  0  0
 77 57  1  0  0  0  0
 79 58  1  0  0  0  0
 81 51  1  0  0  0  0
 82 51  1  0  0  0  0
 89 50  1  0  0  0  0
 91 61  1  0  0  0  0
 92 61  1  0  0  0  0
 93 63  1  0  0  0  0
 95 63  1  0  0  0  0
 99 53  1  0  0  0  0
101 53  1  0  0  0  0
102 66  1  0  0  0  0
105 54  1  0  0  0  0
106 54  1  0  0  0  0
108 55  1  0  0  0  0
109 55  1  0  0  0  0
110 55  1  0  0  0  0
111 65  1  0  0  0  0
112 65  1  0  0  0  0
114 67  1  0  0  0  0
116 67  1  0  0  0  0
117 71  1  0  0  0  0
124 69  1  0  0  0  0
125 69  1  0  0  0  0
130 21  1  0  0  0  0
131  5  1  0  0  0  0
132 15  1  0  0  0  0
133 17  1  0  0  0  0
M  CHG  1   1  -1
M  END
