 energy: -195.865372062407 gnorm: 0.000188605274 xtb: 6.7.1 (edcfbbe)
          03242511283D

137148  0     0  0            999 V2000
   -0.8827   -2.0307    1.3468 C   0  0  0  0  0  0  0  0  0  0  0  0
   -1.3414   -0.9034    0.6647 C   0  0  0  0  0  0  0  0  0  0  0  0
   -2.5835   -0.9540   -0.0295 C   0  0  0  0  0  0  0  0  0  0  0  0
   -3.1685   -2.2674   -0.1421 C   0  0  0  0  0  0  0  0  0  0  0  0
   -2.6084   -3.3937    0.5049 C   0  0  0  0  0  0  0  0  0  0  0  0
   -1.5208   -3.2742    1.3337 C   0  0  0  0  0  0  0  0  0  0  0  0
   -3.4026    0.1493   -0.4503 C   0  0  0  0  0  0  0  0  0  0  0  0
   -4.7213   -0.1651   -0.8420 C   0  0  0  0  0  0  0  0  0  0  0  0
   -5.1084   -1.5068   -1.0920 C   0  0  0  0  0  0  0  0  0  0  0  0
   -4.3217   -2.5241   -0.7609 N   0  0  0  0  0  0  0  0  0  0  0  0
   -3.1294    1.5569   -0.3716 C   0  0  0  0  0  0  0  0  0  0  0  0
   -4.2602    2.4378   -0.2195 C   0  0  0  0  0  0  0  0  0  0  0  0
   -5.5038    2.0852   -0.5262 N   0  0  0  0  0  0  0  0  0  0  0  0
   -5.7186    0.8413   -0.9572 C   0  0  0  0  0  0  0  0  0  0  0  0
   -6.9920    0.5084   -1.4509 C   0  0  0  0  0  0  0  0  0  0  0  0
   -7.3216   -0.7875   -1.8393 C   0  0  0  0  0  0  0  0  0  0  0  0
   -6.3807   -1.7840   -1.6422 C   0  0  0  0  0  0  0  0  0  0  0  0
   -1.8765    2.1940   -0.4990 C   0  0  0  0  0  0  0  0  0  0  0  0
   -1.7351    3.5133   -0.0781 C   0  0  0  0  0  0  0  0  0  0  0  0
   -2.8102    4.3053    0.3388 C   0  0  0  0  0  0  0  0  0  0  0  0
   -4.0701    3.7751    0.1965 C   0  0  0  0  0  0  0  0  0  0  0  0
   -0.5916    0.1863    0.8284 O   0  0  0  0  0  0  0  0  0  0  0  0
   -0.8554    1.5770   -1.0980 O   0  0  0  0  0  0  0  0  0  0  0  0
    0.1048    0.8587   -0.2730 B   0  0  0  0  0  0  0  0  0  0  0  0
    1.0541   -2.3126   -1.2562 C   0  0  0  0  0  0  0  0  0  0  0  0
    1.5272   -1.0765   -0.8159 C   0  0  0  0  0  0  0  0  0  0  0  0
    2.7614   -1.0018   -0.1106 C   0  0  0  0  0  0  0  0  0  0  0  0
    3.3217   -2.2727    0.2787 C   0  0  0  0  0  0  0  0  0  0  0  0
    2.7468   -3.4997   -0.1291 C   0  0  0  0  0  0  0  0  0  0  0  0
    1.6691   -3.5367   -0.9780 C   0  0  0  0  0  0  0  0  0  0  0  0
    3.5946    0.1530    0.0836 C   0  0  0  0  0  0  0  0  0  0  0  0
    4.9035   -0.0935    0.5501 C   0  0  0  0  0  0  0  0  0  0  0  0
    5.2640   -1.3610    1.0773 C   0  0  0  0  0  0  0  0  0  0  0  0
    4.4629   -2.4140    0.9530 N   0  0  0  0  0  0  0  0  0  0  0  0
    3.3471    1.5170   -0.2919 C   0  0  0  0  0  0  0  0  0  0  0  0
    4.4959    2.3276   -0.6084 C   0  0  0  0  0  0  0  0  0  0  0  0
    5.7295    2.0268   -0.2158 N   0  0  0  0  0  0  0  0  0  0  0  0
    5.9175    0.8981    0.4678 C   0  0  0  0  0  0  0  0  0  0  0  0
    7.1838    0.6607    1.0385 C   0  0  0  0  0  0  0  0  0  0  0  0
    7.4840   -0.5284    1.6887 C   0  0  0  0  0  0  0  0  0  0  0  0
    6.5240   -1.5321    1.6871 C   0  0  0  0  0  0  0  0  0  0  0  0
    2.1056    2.1882   -0.3190 C   0  0  0  0  0  0  0  0  0  0  0  0
    1.9949    3.3921   -1.0093 C   0  0  0  0  0  0  0  0  0  0  0  0
    3.0895    4.0607   -1.5671 C   0  0  0  0  0  0  0  0  0  0  0  0
    4.3371    3.5507   -1.2979 C   0  0  0  0  0  0  0  0  0  0  0  0
    1.0659    1.7324    0.3835 O   0  0  0  0  0  0  0  0  0  0  0  0
    0.7984   -0.0317   -1.2081 O   0  0  0  0  0  0  0  0  0  0  0  0
   -1.0845   -4.3809    2.2781 C   0  0  0  0  0  0  0  0  0  0  0  0
    0.4285   -4.3519    2.5240 C   0  0  0  0  0  0  0  0  0  0  0  0
   -1.4810   -5.7696    1.7658 C   0  0  0  0  0  0  0  0  0  0  0  0
   -1.8130   -4.1220    3.6075 C   0  0  0  0  0  0  0  0  0  0  0  0
   -2.6263    5.7181    0.8683 C   0  0  0  0  0  0  0  0  0  0  0  0
   -3.2667    5.8000    2.2610 C   0  0  0  0  0  0  0  0  0  0  0  0
   -1.1526    6.1123    0.9940 C   0  0  0  0  0  0  0  0  0  0  0  0
   -3.3154    6.7073   -0.0814 C   0  0  0  0  0  0  0  0  0  0  0  0
   -8.7005   -1.0572   -2.4209 C   0  0  0  0  0  0  0  0  0  0  0  0
   -8.8892   -2.5213   -2.8245 C   0  0  0  0  0  0  0  0  0  0  0  0
   -8.8893   -0.1842   -3.6694 C   0  0  0  0  0  0  0  0  0  0  0  0
   -9.7618   -0.7021   -1.3704 C   0  0  0  0  0  0  0  0  0  0  0  0
    1.2169   -4.8070   -1.6768 C   0  0  0  0  0  0  0  0  0  0  0  0
   -0.2968   -4.8089   -1.9215 C   0  0  0  0  0  0  0  0  0  0  0  0
    1.5982   -6.0670   -0.8927 C   0  0  0  0  0  0  0  0  0  0  0  0
    1.9436   -4.8339   -3.0318 C   0  0  0  0  0  0  0  0  0  0  0  0
    2.9395    5.3338   -2.3838 C   0  0  0  0  0  0  0  0  0  0  0  0
    3.5943    5.1091   -3.7539 C   0  0  0  0  0  0  0  0  0  0  0  0
    3.6400    6.4879   -1.6541 C   0  0  0  0  0  0  0  0  0  0  0  0
    1.4754    5.7194   -2.6092 C   0  0  0  0  0  0  0  0  0  0  0  0
    8.8250   -0.7785    2.3612 C   0  0  0  0  0  0  0  0  0  0  0  0
    9.7548    0.4349    2.2830 C   0  0  0  0  0  0  0  0  0  0  0  0
    8.5799   -1.1035    3.8412 C   0  0  0  0  0  0  0  0  0  0  0  0
    9.5159   -1.9636    1.6729 C   0  0  0  0  0  0  0  0  0  0  0  0
  -10.7559   -0.9047   -1.7626 H   0  0  0  0  0  0  0  0  0  0  0  0
   -9.7120    0.3474   -1.0945 H   0  0  0  0  0  0  0  0  0  0  0  0
   -9.6171   -1.2987   -0.4722 H   0  0  0  0  0  0  0  0  0  0  0  0
   -9.8782   -2.6517   -3.2586 H   0  0  0  0  0  0  0  0  0  0  0  0
   -8.8127   -3.1790   -1.9620 H   0  0  0  0  0  0  0  0  0  0  0  0
   -8.1535   -2.8196   -3.5676 H   0  0  0  0  0  0  0  0  0  0  0  0
   -9.8666   -0.3696   -4.1093 H   0  0  0  0  0  0  0  0  0  0  0  0
   -8.1279   -0.4176   -4.4107 H   0  0  0  0  0  0  0  0  0  0  0  0
   -8.8192    0.8731   -3.4301 H   0  0  0  0  0  0  0  0  0  0  0  0
   -1.5269   -4.8709    4.3428 H   0  0  0  0  0  0  0  0  0  0  0  0
   -2.8908   -4.1662    3.4663 H   0  0  0  0  0  0  0  0  0  0  0  0
   -1.5600   -3.1382    3.9957 H   0  0  0  0  0  0  0  0  0  0  0  0
    0.7370   -5.2584    3.0407 H   0  0  0  0  0  0  0  0  0  0  0  0
    0.7117   -3.5079    3.1467 H   0  0  0  0  0  0  0  0  0  0  0  0
    0.9734   -4.2817    1.5863 H   0  0  0  0  0  0  0  0  0  0  0  0
   -1.0903   -6.5320    2.4367 H   0  0  0  0  0  0  0  0  0  0  0  0
   -1.0793   -5.9491    0.7725 H   0  0  0  0  0  0  0  0  0  0  0  0
   -2.5609   -5.8840    1.7315 H   0  0  0  0  0  0  0  0  0  0  0  0
   -0.6197   -5.7985   -2.2381 H   0  0  0  0  0  0  0  0  0  0  0  0
   -0.5715   -4.1087   -2.7055 H   0  0  0  0  0  0  0  0  0  0  0  0
   -0.8368   -4.5375   -1.0181 H   0  0  0  0  0  0  0  0  0  0  0  0
    1.6454   -5.7131   -3.5989 H   0  0  0  0  0  0  0  0  0  0  0  0
    3.0213   -4.8626   -2.8857 H   0  0  0  0  0  0  0  0  0  0  0  0
    1.7018   -3.9466   -3.6122 H   0  0  0  0  0  0  0  0  0  0  0  0
    1.1972   -6.9453   -1.3945 H   0  0  0  0  0  0  0  0  0  0  0  0
    1.1967   -6.0360    0.1163 H   0  0  0  0  0  0  0  0  0  0  0  0
    2.6769   -6.1847   -0.8359 H   0  0  0  0  0  0  0  0  0  0  0  0
   -3.1497    6.8017    2.6693 H   0  0  0  0  0  0  0  0  0  0  0  0
   -2.7872    5.0938    2.9353 H   0  0  0  0  0  0  0  0  0  0  0  0
   -4.3270    5.5678    2.2212 H   0  0  0  0  0  0  0  0  0  0  0  0
    3.5219    7.4115   -2.2169 H   0  0  0  0  0  0  0  0  0  0  0  0
    4.7018    6.2923   -1.5364 H   0  0  0  0  0  0  0  0  0  0  0  0
    3.2065    6.6272   -0.6660 H   0  0  0  0  0  0  0  0  0  0  0  0
   -1.0784    7.0999    1.4452 H   0  0  0  0  0  0  0  0  0  0  0  0
   -0.6765    6.1562    0.0172 H   0  0  0  0  0  0  0  0  0  0  0  0
   -0.6116    5.4106    1.6244 H   0  0  0  0  0  0  0  0  0  0  0  0
   -3.1738    7.7259    0.2737 H   0  0  0  0  0  0  0  0  0  0  0  0
   -4.3820    6.5127   -0.1461 H   0  0  0  0  0  0  0  0  0  0  0  0
   -2.8923    6.6275   -1.0805 H   0  0  0  0  0  0  0  0  0  0  0  0
    3.5025    6.0047   -4.3649 H   0  0  0  0  0  0  0  0  0  0  0  0
    3.1061    4.2861   -4.2714 H   0  0  0  0  0  0  0  0  0  0  0  0
    4.6490    4.8704   -3.6519 H   0  0  0  0  0  0  0  0  0  0  0  0
    1.4259    6.5918   -3.2581 H   0  0  0  0  0  0  0  0  0  0  0  0
    0.9911    5.9756   -1.6698 H   0  0  0  0  0  0  0  0  0  0  0  0
    0.9262    4.9112   -3.0862 H   0  0  0  0  0  0  0  0  0  0  0  0
    9.6666   -1.7498    0.6168 H   0  0  0  0  0  0  0  0  0  0  0  0
    8.9244   -2.8709    1.7562 H   0  0  0  0  0  0  0  0  0  0  0  0
   10.4861   -2.1454    2.1298 H   0  0  0  0  0  0  0  0  0  0  0  0
    8.0750   -0.2730    4.3301 H   0  0  0  0  0  0  0  0  0  0  0  0
    9.5275   -1.2760    4.3467 H   0  0  0  0  0  0  0  0  0  0  0  0
    7.9657   -1.9920    3.9567 H   0  0  0  0  0  0  0  0  0  0  0  0
    9.3054    1.3035    2.7584 H   0  0  0  0  0  0  0  0  0  0  0  0
    9.9975    0.6778    1.2513 H   0  0  0  0  0  0  0  0  0  0  0  0
   10.6846    0.2111    2.8016 H   0  0  0  0  0  0  0  0  0  0  0  0
    7.9034    1.4552    0.9368 H   0  0  0  0  0  0  0  0  0  0  0  0
    6.7135   -2.4976    2.1282 H   0  0  0  0  0  0  0  0  0  0  0  0
    3.2723   -4.3835    0.1913 H   0  0  0  0  0  0  0  0  0  0  0  0
    5.2453    4.0662   -1.5641 H   0  0  0  0  0  0  0  0  0  0  0  0
   -4.9653    4.3528    0.3588 H   0  0  0  0  0  0  0  0  0  0  0  0
   -3.1518   -4.3150    0.3789 H   0  0  0  0  0  0  0  0  0  0  0  0
   -7.7058    1.3143   -1.5116 H   0  0  0  0  0  0  0  0  0  0  0  0
   -6.5814   -2.8171   -1.8704 H   0  0  0  0  0  0  0  0  0  0  0  0
    0.1598   -2.2689   -1.8567 H   0  0  0  0  0  0  0  0  0  0  0  0
    0.0193   -1.8800    1.9176 H   0  0  0  0  0  0  0  0  0  0  0  0
   -0.7341    3.9063   -0.0857 H   0  0  0  0  0  0  0  0  0  0  0  0
    1.0021    3.7958   -1.0981 H   0  0  0  0  0  0  0  0  0  0  0  0
  1135  1  0  0  0  0
  2  1  1  0  0  0  0
  2 22  1  0  0  0  0
  3  7  1  0  0  0  0
  3  2  2  0  0  0  0
  4  3  1  0  0  0  0
  5  4  2  0  0  0  0
  5  6  1  0  0  0  0
  6 48  1  0  0  0  0
  6  1  3  0  0  0  0
  7 11  1  0  0  0  0
  7  8  1  0  0  0  0
  9 17  1  0  0  0  0
  9  8  1  0  0  0  0
 10  4  1  0  0  0  0
 10  9  1  0  0  0  0
 11 18  2  0  0  0  0
 11 12  1  0  0  0  0
 12 21  2  0  0  0  0
 13 12  1  0  0  0  0
 14 13  1  0  0  0  0
 14  8  1  0  0  0  0
 15 16  1  0  0  0  0
 15 14  2  0  0  0  0
 16 17  1  0  0  0  0
 18 19  1  0  0  0  0
 19 20  2  0  0  0  0
 19136  1  0  0  0  0
 21 20  1  0  0  0  0
 23 18  1  0  0  0  0
 24 23  1  0  0  0  0
 24 22  1  0  0  0  0
 24 46  1  0  0  0  0
 25 26  1  0  0  0  0
 25134  1  0  0  0  0
 27 26  1  0  0  0  0
 27 31  2  0  0  0  0
 28 34  2  0  0  0  0
 28 27  1  0  0  0  0
 29 28  1  0  0  0  0
 29128  1  0  0  0  0
 29 30  1  0  0  0  0
 30 25  1  0  0  0  0
 30 60  1  0  0  0  0
 31 35  1  0  0  0  0
 32 31  1  0  0  0  0
 32 38  1  0  0  0  0
 33 32  2  0  0  0  0
 33 41  1  0  0  0  0
 34 33  1  0  0  0  0
 35 36  2  0  0  0  0
 35 42  1  0  0  0  0
 36 37  1  0  0  0  0
 38 37  1  0  0  0  0
 38 39  2  0  0  0  0
 39126  1  0  0  0  0
 40 39  1  0  0  0  0
 41127  1  0  0  0  0
 41 40  2  0  0  0  0
 42 46  1  0  0  0  0
 43 42  2  0  0  0  0
 43137  1  0  0  0  0
 44 45  2  0  0  0  0
 44 43  1  0  0  0  0
 45129  1  0  0  0  0
 45 36  1  0  0  0  0
 47 26  1  0  0  0  0
 47 24  1  0  0  0  0
 48 49  1  0  0  0  0
 49 84  1  0  0  0  0
 49 85  1  0  0  0  0
 49 86  1  0  0  0  0
 50 87  1  0  0  0  0
 50 48  1  0  0  0  0
 50 88  1  0  0  0  0
 51 83  1  0  0  0  0
 51 48  1  0  0  0  0
 52 20  1  0  0  0  0
 52 53  1  0  0  0  0
 52 54  1  0  0  0  0
 53100  1  0  0  0  0
 54107  1  0  0  0  0
 55 52  1  0  0  0  0
 56 16  1  0  0  0  0
 56 59  1  0  0  0  0
 57 56  1  0  0  0  0
 58 78  1  0  0  0  0
 58 56  1  0  0  0  0
 58 80  1  0  0  0  0
 59 72  1  0  0  0  0
 59 74  1  0  0  0  0
 59 73  1  0  0  0  0
 60 63  1  0  0  0  0
 60 62  1  0  0  0  0
 61 90  1  0  0  0  0
 61 60  1  0  0  0  0
 62 97  1  0  0  0  0
 62 96  1  0  0  0  0
 62 98  1  0  0  0  0
 63 94  1  0  0  0  0
 64 66  1  0  0  0  0
 64 44  1  0  0  0  0
 65113  1  0  0  0  0
 65 64  1  0  0  0  0
 66103  1  0  0  0  0
 66104  1  0  0  0  0
 67 64  1  0  0  0  0
 67115  1  0  0  0  0
 68 40  1  0  0  0  0
 68 70  1  0  0  0  0
 69123  1  0  0  0  0
 69 68  1  0  0  0  0
 70121  1  0  0  0  0
 70122  1  0  0  0  0
 70120  1  0  0  0  0
 71119  1  0  0  0  0
 71118  1  0  0  0  0
 71 68  1  0  0  0  0
 75 57  1  0  0  0  0
 76 57  1  0  0  0  0
 77 57  1  0  0  0  0
 79 58  1  0  0  0  0
 81 51  1  0  0  0  0
 82 51  1  0  0  0  0
 89 50  1  0  0  0  0
 91 61  1  0  0  0  0
 92 61  1  0  0  0  0
 93 63  1  0  0  0  0
 95 63  1  0  0  0  0
 99 53  1  0  0  0  0
101 53  1  0  0  0  0
102 66  1  0  0  0  0
105 54  1  0  0  0  0
106 54  1  0  0  0  0
108 55  1  0  0  0  0
109 55  1  0  0  0  0
110 55  1  0  0  0  0
111 65  1  0  0  0  0
112 65  1  0  0  0  0
114 67  1  0  0  0  0
116 67  1  0  0  0  0
117 71  1  0  0  0  0
124 69  1  0  0  0  0
125 69  1  0  0  0  0
130 21  1  0  0  0  0
131  5  1  0  0  0  0
132 15  1  0  0  0  0
133 17  1  0  0  0  0
M  CHG  1   1   0
M  END
