 energy: -101.586936336865 gnorm: 0.000365128670 xtb: 6.6.1 (8d0f1dd)
          11142413463D

 61 68  0     0  0            999 V2000
    3.2010    2.3114    0.4128 C   0  0  0  0  0  0  0  0  0  0  0  0
    2.9916    0.9040    0.3226 C   0  0  0  0  0  0  0  0  0  0  0  0
    2.2722    3.3040   -0.0559 C   0  0  0  0  0  0  0  0  0  0  0  0
    4.4294    2.7716    0.9754 C   0  0  0  0  0  0  0  0  0  0  0  0
    4.1398    0.0514    0.3449 C   0  0  0  0  0  0  0  0  0  0  0  0
    2.3990    4.6424    0.4103 C   0  0  0  0  0  0  0  0  0  0  0  0
    5.5267    1.8833    1.0930 C   0  0  0  0  0  0  0  0  0  0  0  0
    4.5347    4.1079    1.4105 C   0  0  0  0  0  0  0  0  0  0  0  0
    5.4079    0.5883    0.6941 C   0  0  0  0  0  0  0  0  0  0  0  0
    3.5162    5.0011    1.2038 C   0  0  0  0  0  0  0  0  0  0  0  0
    1.7310    0.2528    0.2884 C   0  0  0  0  0  0  0  0  0  0  0  0
    1.3438    3.0509   -1.0752 C   0  0  0  0  0  0  0  0  0  0  0  0
    4.0182   -1.3237    0.0690 C   0  0  0  0  0  0  0  0  0  0  0  0
    1.4779    5.6152   -0.0167 C   0  0  0  0  0  0  0  0  0  0  0  0
    1.6327   -1.1458    0.0988 C   0  0  0  0  0  0  0  0  0  0  0  0
    0.4791    4.0367   -1.5174 C   0  0  0  0  0  0  0  0  0  0  0  0
    2.7909   -1.9184   -0.0828 C   0  0  0  0  0  0  0  0  0  0  0  0
    0.5190    5.3123   -0.9631 C   0  0  0  0  0  0  0  0  0  0  0  0
    6.4634    2.2653    1.4677 H   0  0  0  0  0  0  0  0  0  0  0  0
    5.4373    4.4147    1.9167 H   0  0  0  0  0  0  0  0  0  0  0  0
    6.2586   -0.0751    0.7098 H   0  0  0  0  0  0  0  0  0  0  0  0
    3.5999    6.0181    1.5564 H   0  0  0  0  0  0  0  0  0  0  0  0
    1.3456    2.0903   -1.5677 H   0  0  0  0  0  0  0  0  0  0  0  0
    4.9181   -1.9157    0.0050 H   0  0  0  0  0  0  0  0  0  0  0  0
    1.5520    6.6145    0.3850 H   0  0  0  0  0  0  0  0  0  0  0  0
   -0.2189    3.8171   -2.3102 H   0  0  0  0  0  0  0  0  0  0  0  0
    2.7020   -2.9761   -0.2735 H   0  0  0  0  0  0  0  0  0  0  0  0
   -0.1683    6.0715   -1.3013 H   0  0  0  0  0  0  0  0  0  0  0  0
   -1.9970   -0.7797    0.7532 C   0  0  0  0  0  0  0  0  0  0  0  0
   -2.7223    0.3096    0.9618 N   0  0  0  0  0  0  0  0  0  0  0  0
   -3.9951    0.1786    1.2237 N   0  0  0  0  0  0  0  0  0  0  0  0
   -4.6234   -1.0802    1.3517 C   0  0  0  0  0  0  0  0  0  0  0  0
   -3.7841   -2.1521    0.9606 N   0  0  0  0  0  0  0  0  0  0  0  0
   -2.5179   -2.0010    0.6968 N   0  0  0  0  0  0  0  0  0  0  0  0
   -5.7316   -1.2315    1.7699 O   0  0  0  0  0  0  0  0  0  0  0  0
    0.1762    0.9306    0.6614 S   0  0  0  0  0  0  0  0  0  0  0  0
   -0.5826   -0.6346    0.5250 C   0  0  0  0  0  0  0  0  0  0  0  0
    0.3044   -1.6218    0.2065 C   0  0  0  0  0  0  0  0  0  0  0  0
   -4.2848   -3.4610    0.9017 C   0  0  0  0  0  0  0  0  0  0  0  0
   -5.6267   -3.7369    0.6120 C   0  0  0  0  0  0  0  0  0  0  0  0
   -6.0465   -5.0506    0.5566 C   0  0  0  0  0  0  0  0  0  0  0  0
   -5.1540   -6.0908    0.7850 C   0  0  0  0  0  0  0  0  0  0  0  0
   -3.8179   -5.8148    1.0611 C   0  0  0  0  0  0  0  0  0  0  0  0
   -3.3794   -4.5112    1.1158 C   0  0  0  0  0  0  0  0  0  0  0  0
   -4.7158    1.3651    1.4344 C   0  0  0  0  0  0  0  0  0  0  0  0
   -3.9942    2.4980    1.8377 C   0  0  0  0  0  0  0  0  0  0  0  0
   -4.6533    3.6875    2.0526 C   0  0  0  0  0  0  0  0  0  0  0  0
   -6.0295    3.7689    1.8631 C   0  0  0  0  0  0  0  0  0  0  0  0
   -6.7401    2.6513    1.4454 C   0  0  0  0  0  0  0  0  0  0  0  0
   -6.0976    1.4487    1.2278 C   0  0  0  0  0  0  0  0  0  0  0  0
   -2.9316    2.4114    2.0029 H   0  0  0  0  0  0  0  0  0  0  0  0
   -4.1018    4.5528    2.3845 H   0  0  0  0  0  0  0  0  0  0  0  0
   -6.5449    4.6994    2.0427 H   0  0  0  0  0  0  0  0  0  0  0  0
   -7.8040    2.7176    1.2823 H   0  0  0  0  0  0  0  0  0  0  0  0
   -6.6652    0.6003    0.8857 H   0  0  0  0  0  0  0  0  0  0  0  0
   -6.3282   -2.9460    0.4076 H   0  0  0  0  0  0  0  0  0  0  0  0
   -7.0777   -5.2658    0.3249 H   0  0  0  0  0  0  0  0  0  0  0  0
   -5.4971   -7.1130    0.7509 H   0  0  0  0  0  0  0  0  0  0  0  0
   -3.1270   -6.6216    1.2486 H   0  0  0  0  0  0  0  0  0  0  0  0
   -2.3546   -4.2769    1.3581 H   0  0  0  0  0  0  0  0  0  0  0  0
    0.0241   -2.6502    0.0713 H   0  0  0  0  0  0  0  0  0  0  0  0
  1  2  1  0  0  0  0
  1  3  1  0  0  0  0
  1  4  2  0  0  0  0
  2  5  1  0  0  0  0
  2 11  2  0  0  0  0
  3  6  1  0  0  0  0
  3 12  2  0  0  0  0
  4  7  1  0  0  0  0
  4  8  1  0  0  0  0
  5  9  1  0  0  0  0
  5 13  2  0  0  0  0
  6 10  1  0  0  0  0
  6 14  2  0  0  0  0
  7  9  2  0  0  0  0
  7 19  1  0  0  0  0
  8 10  2  0  0  0  0
  8 20  1  0  0  0  0
  9 21  1  0  0  0  0
 10 22  1  0  0  0  0
 11 15  1  0  0  0  0
 11 36  1  0  0  0  0
 12 16  1  0  0  0  0
 12 23  1  0  0  0  0
 13 17  1  0  0  0  0
 13 24  1  0  0  0  0
 14 18  1  0  0  0  0
 14 25  1  0  0  0  0
 15 17  2  0  0  0  0
 16 18  2  0  0  0  0
 16 26  1  0  0  0  0
 17 27  1  0  0  0  0
 18 28  1  0  0  0  0
 29 30  2  0  0  0  0
 29 37  1  0  0  0  0
 30 31  1  0  0  0  0
 31 45  1  0  0  0  0
 31 32  1  0  0  0  0
 32 33  1  0  0  0  0
 32 35  2  0  0  0  0
 33 39  1  0  0  0  0
 33 34  1  0  0  0  0
 34 29  1  0  0  0  0
 36 37  1  0  0  0  0
 37 38  2  0  0  0  0
 38 15  1  0  0  0  0
 38 61  1  0  0  0  0
 39 40  2  0  0  0  0
 39 44  1  0  0  0  0
 40 41  1  0  0  0  0
 40 56  1  0  0  0  0
 41 42  2  0  0  0  0
 41 57  1  0  0  0  0
 42 43  1  0  0  0  0
 42 58  1  0  0  0  0
 43 44  2  0  0  0  0
 43 59  1  0  0  0  0
 44 60  1  0  0  0  0
 45 46  2  0  0  0  0
 45 50  1  0  0  0  0
 46 47  1  0  0  0  0
 46 51  1  0  0  0  0
 47 48  2  0  0  0  0
 47 52  1  0  0  0  0
 48 49  1  0  0  0  0
 48 53  1  0  0  0  0
 49 50  2  0  0  0  0
 49 54  1  0  0  0  0
 50 55  1  0  0  0  0
M  CHG  1   1   2
M  END
