 energy: -205.094740422366 gnorm: 0.000240538456 xtb: 6.6.1 (8d0f1dd)
          11142413503D

122136  0     0  0            999 V2000
    3.5503    2.0983    0.4765 C   0  0  0  0  0  0  0  0  0  0  0  0
    3.3658    0.6921    0.2631 C   0  0  0  0  0  0  0  0  0  0  0  0
    2.5990    3.1072    0.1044 C   0  0  0  0  0  0  0  0  0  0  0  0
    4.7561    2.5264    1.0603 C   0  0  0  0  0  0  0  0  0  0  0  0
    4.5095   -0.1476    0.2538 C   0  0  0  0  0  0  0  0  0  0  0  0
    2.7135    4.4055    0.6599 C   0  0  0  0  0  0  0  0  0  0  0  0
    5.8641    1.6469    1.1139 C   0  0  0  0  0  0  0  0  0  0  0  0
    4.8612    3.8437    1.5795 C   0  0  0  0  0  0  0  0  0  0  0  0
    5.7678    0.3843    0.6258 C   0  0  0  0  0  0  0  0  0  0  0  0
    3.8381    4.7241    1.4646 C   0  0  0  0  0  0  0  0  0  0  0  0
    2.1160    0.0319    0.2037 C   0  0  0  0  0  0  0  0  0  0  0  0
    1.6416    2.9090   -0.9063 C   0  0  0  0  0  0  0  0  0  0  0  0
    4.3940   -1.5268   -0.0413 C   0  0  0  0  0  0  0  0  0  0  0  0
    1.7620    5.3852    0.3306 C   0  0  0  0  0  0  0  0  0  0  0  0
    2.0171   -1.3586    0.0254 C   0  0  0  0  0  0  0  0  0  0  0  0
    0.7477    3.8939   -1.2404 C   0  0  0  0  0  0  0  0  0  0  0  0
    3.1805   -2.1257   -0.1771 C   0  0  0  0  0  0  0  0  0  0  0  0
    0.7764    5.1275   -0.5849 C   0  0  0  0  0  0  0  0  0  0  0  0
    6.7973    2.0199    1.5101 H   0  0  0  0  0  0  0  0  0  0  0  0
    5.7734    4.1166    2.0901 H   0  0  0  0  0  0  0  0  0  0  0  0
    6.6311   -0.2645    0.5892 H   0  0  0  0  0  0  0  0  0  0  0  0
    3.8927    5.7053    1.9129 H   0  0  0  0  0  0  0  0  0  0  0  0
    1.6514    1.9876   -1.4676 H   0  0  0  0  0  0  0  0  0  0  0  0
    5.3021   -2.1080   -0.1135 H   0  0  0  0  0  0  0  0  0  0  0  0
    1.8433    6.3587    0.7925 H   0  0  0  0  0  0  0  0  0  0  0  0
    0.0264    3.7222   -2.0256 H   0  0  0  0  0  0  0  0  0  0  0  0
    3.0896   -3.1829   -0.3754 H   0  0  0  0  0  0  0  0  0  0  0  0
    0.0506    5.8867   -0.8368 H   0  0  0  0  0  0  0  0  0  0  0  0
   -1.5859   -0.9546    0.8392 C   0  0  0  0  0  0  0  0  0  0  0  0
   -2.1899    0.1864    1.1196 N   0  0  0  0  0  0  0  0  0  0  0  0
   -3.4768    0.1107    1.5167 N   0  0  0  0  0  0  0  0  0  0  0  0
   -4.1286   -1.0956    1.7200 C   0  0  0  0  0  0  0  0  0  0  0  0
   -3.4319   -2.2040    1.2652 N   0  0  0  0  0  0  0  0  0  0  0  0
   -2.1438   -2.1502    0.8575 N   0  0  0  0  0  0  0  0  0  0  0  0
   -5.2063   -1.1726    2.2719 O   0  0  0  0  0  0  0  0  0  0  0  0
    0.5496    0.7083    0.5525 S   0  0  0  0  0  0  0  0  0  0  0  0
   -0.1889   -0.8589    0.4922 C   0  0  0  0  0  0  0  0  0  0  0  0
    0.6931   -1.8427    0.1718 C   0  0  0  0  0  0  0  0  0  0  0  0
   -3.9835   -3.4962    1.3131 C   0  0  0  0  0  0  0  0  0  0  0  0
   -5.3424   -3.7200    1.1160 C   0  0  0  0  0  0  0  0  0  0  0  0
   -5.8262   -5.0143    1.1318 C   0  0  0  0  0  0  0  0  0  0  0  0
   -4.9724   -6.0851    1.3344 C   0  0  0  0  0  0  0  0  0  0  0  0
   -3.6186   -5.8586    1.5226 C   0  0  0  0  0  0  0  0  0  0  0  0
   -3.1214   -4.5722    1.5118 C   0  0  0  0  0  0  0  0  0  0  0  0
   -4.0753    1.3378    1.8618 C   0  0  0  0  0  0  0  0  0  0  0  0
   -3.2580    2.3602    2.3375 C   0  0  0  0  0  0  0  0  0  0  0  0
   -3.8138    3.5774    2.6739 C   0  0  0  0  0  0  0  0  0  0  0  0
   -5.1754    3.7898    2.5294 C   0  0  0  0  0  0  0  0  0  0  0  0
   -5.9823    2.7736    2.0469 C   0  0  0  0  0  0  0  0  0  0  0  0
   -5.4423    1.5469    1.7087 C   0  0  0  0  0  0  0  0  0  0  0  0
   -2.2023    2.1773    2.4507 H   0  0  0  0  0  0  0  0  0  0  0  0
   -3.1801    4.3604    3.0610 H   0  0  0  0  0  0  0  0  0  0  0  0
   -5.6081    4.7420    2.7957 H   0  0  0  0  0  0  0  0  0  0  0  0
   -7.0428    2.9349    1.9270 H   0  0  0  0  0  0  0  0  0  0  0  0
   -6.0781    0.7639    1.3299 H   0  0  0  0  0  0  0  0  0  0  0  0
   -6.0146   -2.8949    0.9500 H   0  0  0  0  0  0  0  0  0  0  0  0
   -6.8805   -5.1857    0.9760 H   0  0  0  0  0  0  0  0  0  0  0  0
   -5.3602   -7.0922    1.3441 H   0  0  0  0  0  0  0  0  0  0  0  0
   -2.9479   -6.6893    1.6827 H   0  0  0  0  0  0  0  0  0  0  0  0
   -2.0722   -4.3737    1.6573 H   0  0  0  0  0  0  0  0  0  0  0  0
    0.4132   -2.8759    0.0788 H   0  0  0  0  0  0  0  0  0  0  0  0
    2.7297    2.5246    4.0431 C   0  0  0  0  0  0  0  0  0  0  0  0
    2.5443    1.1272    3.7696 C   0  0  0  0  0  0  0  0  0  0  0  0
    1.7462    3.5445    3.8016 C   0  0  0  0  0  0  0  0  0  0  0  0
    3.9731    2.9377    4.5577 C   0  0  0  0  0  0  0  0  0  0  0  0
    3.6975    0.3081    3.6396 C   0  0  0  0  0  0  0  0  0  0  0  0
    1.9025    4.8192    4.4010 C   0  0  0  0  0  0  0  0  0  0  0  0
    5.0882    2.0679    4.5098 C   0  0  0  0  0  0  0  0  0  0  0  0
    4.1164    4.2329    5.1222 C   0  0  0  0  0  0  0  0  0  0  0  0
    4.9710    0.8298    3.9694 C   0  0  0  0  0  0  0  0  0  0  0  0
    3.0880    5.1136    5.1237 C   0  0  0  0  0  0  0  0  0  0  0  0
    1.3033    0.4437    3.7516 C   0  0  0  0  0  0  0  0  0  0  0  0
    0.7078    3.3916    2.8687 C   0  0  0  0  0  0  0  0  0  0  0  0
    3.5907   -1.0536    3.2735 C   0  0  0  0  0  0  0  0  0  0  0  0
    0.9275    5.8097    4.1924 C   0  0  0  0  0  0  0  0  0  0  0  0
    1.2217   -0.9312    3.4705 C   0  0  0  0  0  0  0  0  0  0  0  0
   -0.1999    4.3920    2.6345 C   0  0  0  0  0  0  0  0  0  0  0  0
    2.3818   -1.6643    3.1594 C   0  0  0  0  0  0  0  0  0  0  0  0
   -0.1217    5.5958    3.3382 C   0  0  0  0  0  0  0  0  0  0  0  0
    6.0394    2.4276    4.8749 H   0  0  0  0  0  0  0  0  0  0  0  0
    5.0654    4.4874    5.5725 H   0  0  0  0  0  0  0  0  0  0  0  0
    5.8313    0.1860    3.8595 H   0  0  0  0  0  0  0  0  0  0  0  0
    3.1795    6.0786    5.6015 H   0  0  0  0  0  0  0  0  0  0  0  0
    0.6674    2.4989    2.2704 H   0  0  0  0  0  0  0  0  0  0  0  0
    4.5031   -1.6114    3.1230 H   0  0  0  0  0  0  0  0  0  0  0  0
    1.0453    6.7623    4.6903 H   0  0  0  0  0  0  0  0  0  0  0  0
   -0.9629    4.2553    1.8837 H   0  0  0  0  0  0  0  0  0  0  0  0
    2.2941   -2.7077    2.8990 H   0  0  0  0  0  0  0  0  0  0  0  0
   -0.8579    6.3689    3.1712 H   0  0  0  0  0  0  0  0  0  0  0  0
   -2.3812   -0.7036    4.3363 C   0  0  0  0  0  0  0  0  0  0  0  0
   -3.0791    0.3762    4.6272 N   0  0  0  0  0  0  0  0  0  0  0  0
   -4.3795    0.1995    4.9382 N   0  0  0  0  0  0  0  0  0  0  0  0
   -4.9559   -1.0596    5.0823 C   0  0  0  0  0  0  0  0  0  0  0  0
   -4.1431   -2.1041    4.6569 N   0  0  0  0  0  0  0  0  0  0  0  0
   -2.8577   -1.9375    4.2771 N   0  0  0  0  0  0  0  0  0  0  0  0
   -6.0368   -1.2325    5.5904 O   0  0  0  0  0  0  0  0  0  0  0  0
   -0.2580    1.0516    4.2435 S   0  0  0  0  0  0  0  0  0  0  0  0
   -0.9802   -0.5160    4.0365 C   0  0  0  0  0  0  0  0  0  0  0  0
   -0.0878   -1.4506    3.6138 C   0  0  0  0  0  0  0  0  0  0  0  0
   -4.5941   -3.4344    4.6617 C   0  0  0  0  0  0  0  0  0  0  0  0
   -5.9291   -3.7561    4.4376 C   0  0  0  0  0  0  0  0  0  0  0  0
   -6.3182   -5.0816    4.4550 C   0  0  0  0  0  0  0  0  0  0  0  0
   -5.3939   -6.0880    4.6802 C   0  0  0  0  0  0  0  0  0  0  0  0
   -4.0613   -5.7650    4.8783 C   0  0  0  0  0  0  0  0  0  0  0  0
   -3.6576   -4.4459    4.8678 C   0  0  0  0  0  0  0  0  0  0  0  0
   -5.0894    1.3779    5.2177 C   0  0  0  0  0  0  0  0  0  0  0  0
   -4.3718    2.4929    5.6487 C   0  0  0  0  0  0  0  0  0  0  0  0
   -5.0346    3.6711    5.9247 C   0  0  0  0  0  0  0  0  0  0  0  0
   -6.4091    3.7527    5.7691 C   0  0  0  0  0  0  0  0  0  0  0  0
   -7.1159    2.6490    5.3212 C   0  0  0  0  0  0  0  0  0  0  0  0
   -6.4671    1.4623    5.0383 C   0  0  0  0  0  0  0  0  0  0  0  0
   -3.3024    2.4140    5.7619 H   0  0  0  0  0  0  0  0  0  0  0  0
   -4.4751    4.5284    6.2678 H   0  0  0  0  0  0  0  0  0  0  0  0
   -6.9270    4.6733    5.9935 H   0  0  0  0  0  0  0  0  0  0  0  0
   -8.1852    2.7115    5.1856 H   0  0  0  0  0  0  0  0  0  0  0  0
   -7.0216    0.6122    4.6798 H   0  0  0  0  0  0  0  0  0  0  0  0
   -6.6474   -2.9786    4.2439 H   0  0  0  0  0  0  0  0  0  0  0  0
   -7.3549   -5.3297    4.2847 H   0  0  0  0  0  0  0  0  0  0  0  0
   -5.7094   -7.1203    4.6973 H   0  0  0  0  0  0  0  0  0  0  0  0
   -3.3338   -6.5444    5.0491 H   0  0  0  0  0  0  0  0  0  0  0  0
   -2.6254   -4.1757    5.0251 H   0  0  0  0  0  0  0  0  0  0  0  0
   -0.3537   -2.4751    3.4278 H   0  0  0  0  0  0  0  0  0  0  0  0
  1  2  1  0  0  0  0
  1  3  1  0  0  0  0
  1  4  2  0  0  0  0
  2  5  1  0  0  0  0
  2 11  2  0  0  0  0
  3  6  1  0  0  0  0
  3 12  2  0  0  0  0
  4  7  1  0  0  0  0
  4  8  1  0  0  0  0
  5  9  1  0  0  0  0
  5 13  2  0  0  0  0
  6 10  1  0  0  0  0
  6 14  2  0  0  0  0
  7  9  2  0  0  0  0
  7 19  1  0  0  0  0
  8 10  2  0  0  0  0
  8 20  1  0  0  0  0
  9 21  1  0  0  0  0
 10 22  1  0  0  0  0
 11 15  1  0  0  0  0
 11 36  1  0  0  0  0
 12 16  1  0  0  0  0
 12 23  1  0  0  0  0
 13 17  1  0  0  0  0
 13 24  1  0  0  0  0
 14 18  1  0  0  0  0
 14 25  1  0  0  0  0
 15 17  2  0  0  0  0
 16 18  2  0  0  0  0
 16 26  1  0  0  0  0
 17 27  1  0  0  0  0
 18 28  1  0  0  0  0
 29 30  2  0  0  0  0
 29 37  1  0  0  0  0
 30 31  1  0  0  0  0
 31 45  1  0  0  0  0
 31 32  1  0  0  0  0
 32 33  1  0  0  0  0
 32 35  2  0  0  0  0
 33 39  1  0  0  0  0
 33 34  1  0  0  0  0
 34 29  1  0  0  0  0
 36 37  1  0  0  0  0
 37 38  2  0  0  0  0
 38 15  1  0  0  0  0
 38 61  1  0  0  0  0
 39 40  2  0  0  0  0
 39 44  1  0  0  0  0
 40 41  1  0  0  0  0
 40 56  1  0  0  0  0
 41 42  2  0  0  0  0
 41 57  1  0  0  0  0
 42 43  1  0  0  0  0
 42 58  1  0  0  0  0
 43 44  2  0  0  0  0
 43 59  1  0  0  0  0
 44 60  1  0  0  0  0
 45 46  2  0  0  0  0
 45 50  1  0  0  0  0
 46 47  1  0  0  0  0
 46 51  1  0  0  0  0
 47 48  2  0  0  0  0
 47 52  1  0  0  0  0
 48 49  1  0  0  0  0
 48 53  1  0  0  0  0
 49 50  2  0  0  0  0
 49 54  1  0  0  0  0
 50 55  1  0  0  0  0
 62 63  1  0  0  0  0
 62 64  1  0  0  0  0
 62 65  2  0  0  0  0
 63 66  1  0  0  0  0
 63 72  2  0  0  0  0
 64 67  1  0  0  0  0
 64 73  2  0  0  0  0
 65 68  1  0  0  0  0
 65 69  1  0  0  0  0
 66 70  1  0  0  0  0
 66 74  2  0  0  0  0
 67 71  1  0  0  0  0
 67 75  2  0  0  0  0
 68 70  2  0  0  0  0
 68 80  1  0  0  0  0
 69 71  2  0  0  0  0
 69 81  1  0  0  0  0
 70 82  1  0  0  0  0
 71 83  1  0  0  0  0
 72 76  1  0  0  0  0
 72 97  1  0  0  0  0
 73 77  1  0  0  0  0
 73 84  1  0  0  0  0
 74 78  1  0  0  0  0
 74 85  1  0  0  0  0
 75 79  1  0  0  0  0
 75 86  1  0  0  0  0
 76 78  2  0  0  0  0
 77 79  2  0  0  0  0
 77 87  1  0  0  0  0
 78 88  1  0  0  0  0
 79 89  1  0  0  0  0
 90 91  2  0  0  0  0
 90 98  1  0  0  0  0
 91 92  1  0  0  0  0
 92106  1  0  0  0  0
 92 93  1  0  0  0  0
 93 94  1  0  0  0  0
 93 96  2  0  0  0  0
 94100  1  0  0  0  0
 94 95  1  0  0  0  0
 95 90  1  0  0  0  0
 97 98  1  0  0  0  0
 98 99  2  0  0  0  0
 99 76  1  0  0  0  0
 99122  1  0  0  0  0
100101  2  0  0  0  0
100105  1  0  0  0  0
101102  1  0  0  0  0
101117  1  0  0  0  0
102103  2  0  0  0  0
102118  1  0  0  0  0
103104  1  0  0  0  0
103119  1  0  0  0  0
104105  2  0  0  0  0
104120  1  0  0  0  0
105121  1  0  0  0  0
106107  2  0  0  0  0
106111  1  0  0  0  0
107108  1  0  0  0  0
107112  1  0  0  0  0
108109  2  0  0  0  0
108113  1  0  0  0  0
109110  1  0  0  0  0
109114  1  0  0  0  0
110111  2  0  0  0  0
110115  1  0  0  0  0
111116  1  0  0  0  0
M  END
