
 OpenBabel11122409433D

141152  0  0  0  0  0  0  0  0999 V2000
   -1.4268   -2.7040   -1.1186 C   0  0  0  0  0  0  0  0  0  0  0  0
   -1.8384   -1.4678   -0.5841 C   0  0  0  0  0  0  0  0  0  0  0  0
   -2.9729   -0.7986   -1.2066 C   0  0  0  0  0  0  0  0  0  0  0  0
   -3.5904   -1.4481   -2.3205 C   0  0  0  0  0  0  0  0  0  0  0  0
   -3.1136   -2.6588   -2.8039 C   0  0  0  0  0  0  0  0  0  0  0  0
   -2.0331   -3.3007   -2.2279 C   0  0  0  0  0  0  0  0  0  0  0  0
   -3.5693    0.5992   -0.8913 C   0  0  0  0  0  0  0  0  0  0  0  0
   -5.0834    0.6673   -1.0951 C   0  0  0  0  0  0  0  0  0  0  0  0
   -5.6419    0.0126   -2.2002 C   0  0  0  0  0  0  0  0  0  0  0  0
   -4.8174   -0.9233   -2.9671 C   0  0  0  0  0  0  0  0  0  0  0  0
   -3.0479    1.4447    0.2561 C   0  0  0  0  0  0  0  0  0  0  0  0
   -3.9389    2.0586    1.1737 C   0  0  0  0  0  0  0  0  0  0  0  0
   -5.3932    2.0304    0.9608 C   0  0  0  0  0  0  0  0  0  0  0  0
   -5.9341    1.3859   -0.2368 C   0  0  0  0  0  0  0  0  0  0  0  0
   -7.3033    1.4851   -0.5217 C   0  0  0  0  0  0  0  0  0  0  0  0
   -7.8525    0.8841   -1.6627 C   0  0  0  0  0  0  0  0  0  0  0  0
   -7.0066    0.1330   -2.4876 C   0  0  0  0  0  0  0  0  0  0  0  0
   -1.6684    1.6604    0.4045 C   0  0  0  0  0  0  0  0  0  0  0  0
   -1.2118    2.3476    1.5455 C   0  0  0  0  0  0  0  0  0  0  0  0
   -2.0815    2.8746    2.5055 C   0  0  0  0  0  0  0  0  0  0  0  0
   -3.4489    2.7549    2.2792 C   0  0  0  0  0  0  0  0  0  0  0  0
   -1.0354   -0.9543    0.4160 O   0  0  0  0  0  0  0  0  0  0  0  0
   -0.7878    1.1339   -0.5014 O   0  0  0  0  0  0  0  0  0  0  0  0
   -0.0062    0.0118   -0.0165 B   0  5  0  0  0  0  0  0  0  0  0  0
    1.1688   -2.7959    0.1138 C   0  0  0  0  0  0  0  0  0  0  0  0
    1.6675   -1.6095   -0.4707 C   0  0  0  0  0  0  0  0  0  0  0  0
    3.0442   -1.3600   -0.4219 C   0  0  0  0  0  0  0  0  0  0  0  0
    3.9085   -2.3757    0.0547 C   0  0  0  0  0  0  0  0  0  0  0  0
    3.3868   -3.5434    0.6108 C   0  0  0  0  0  0  0  0  0  0  0  0
    2.0128   -3.7546    0.6924 C   0  0  0  0  0  0  0  0  0  0  0  0
    3.5837   -0.0225   -0.8957 C   0  5  0  0  0  0  0  0  0  0  0  0
    5.1076    0.0246   -1.0319 C   0  0  0  0  0  0  0  0  0  0  0  0
    5.9395   -1.0550   -0.6857 C   0  0  0  0  0  0  0  0  0  0  0  0
    2.9944    1.3050   -0.3404 C   0  0  0  0  0  0  0  0  0  0  0  0
    3.6555    2.4759   -0.8298 C   0  0  0  0  0  0  0  0  0  0  0  0
    4.8929    2.4068   -1.6458 C   0  0  0  0  0  0  0  0  0  0  0  0
    5.6977    1.1877   -1.5422 C   0  0  0  0  0  0  0  0  0  0  0  0
    7.0743    1.2429   -1.7894 C   0  0  0  0  0  0  0  0  0  0  0  0
    7.9010    0.1503   -1.5020 C   0  0  0  0  0  0  0  0  0  0  0  0
    7.3204   -0.9846   -0.9189 C   0  0  0  0  0  0  0  0  0  0  0  0
    1.8382    1.5043    0.5272 C   0  0  0  0  0  0  0  0  0  0  0  0
    1.4848    2.8233    0.8603 C   0  0  0  0  0  0  0  0  0  0  0  0
    2.1455    3.9483    0.3653 C   0  0  0  0  0  0  0  0  0  0  0  0
    3.2209    3.7498   -0.4823 C   0  0  0  0  0  0  0  0  0  0  0  0
    0.9628    0.5320    0.9741 O   0  0  0  0  0  0  0  0  0  0  0  0
    0.8337   -0.6563   -0.9884 O   0  0  0  0  0  0  0  0  0  0  0  0
    5.3678   -2.2487   -0.0608 C   0  0  0  0  0  0  0  0  0  0  0  0
    5.3662    3.4165   -2.1508 O   0  0  0  0  0  0  0  0  0  0  0  0
    6.0992   -3.1542    0.3177 O   0  0  0  0  0  0  0  0  0  0  0  0
   -5.2610   -1.4451   -3.9819 O   0  0  0  0  0  0  0  0  0  0  0  0
   -6.1440    2.5930    1.7470 O   0  0  0  0  0  0  0  0  0  0  0  0
   -1.5437   -4.5942   -2.8511 C   0  0  0  0  0  0  0  0  0  0  0  0
   -0.2936   -5.1320   -2.1904 C   0  0  0  0  0  0  0  0  0  0  0  0
   -1.2054   -4.3686   -4.3153 C   0  0  0  0  0  0  0  0  0  0  0  0
   -2.6248   -5.6566   -2.7593 C   0  0  0  0  0  0  0  0  0  0  0  0
   -1.5892    3.5443    3.7756 C   0  0  0  0  0  0  0  0  0  0  0  0
   -2.0469    4.9915    3.8124 C   0  0  0  0  0  0  0  0  0  0  0  0
   -2.1587    2.8255    4.9867 C   0  0  0  0  0  0  0  0  0  0  0  0
   -0.0745    3.5141    3.9120 C   0  0  0  0  0  0  0  0  0  0  0  0
   -9.3251    1.0073   -2.0041 C   0  0  0  0  0  0  0  0  0  0  0  0
   -9.4838    1.6570   -3.3676 C   0  0  0  0  0  0  0  0  0  0  0  0
  -10.0932    1.8501   -0.9954 C   0  0  0  0  0  0  0  0  0  0  0  0
   -9.9643   -0.3695   -2.0429 C   0  0  0  0  0  0  0  0  0  0  0  0
    1.4498   -4.9560    1.4376 C   0  0  0  0  0  0  0  0  0  0  0  0
    0.6097   -5.8246    0.5315 C   0  0  0  0  0  0  0  0  0  0  0  0
    0.5764   -4.4749    2.5825 C   0  0  0  0  0  0  0  0  0  0  0  0
    2.5374   -5.8419    2.0319 C   0  0  0  0  0  0  0  0  0  0  0  0
    1.7208    5.3684    0.6926 C   0  0  0  0  0  0  0  0  0  0  0  0
    2.8504    6.0956    1.4006 C   0  0  0  0  0  0  0  0  0  0  0  0
    1.3871    6.1158   -0.5872 C   0  0  0  0  0  0  0  0  0  0  0  0
    0.4944    5.4334    1.5817 C   0  0  0  0  0  0  0  0  0  0  0  0
    9.3873    0.2317   -1.7925 C   0  0  0  0  0  0  0  0  0  0  0  0
   10.0032    1.3855   -1.0210 C   0  0  0  0  0  0  0  0  0  0  0  0
   10.1317   -1.0387   -1.4053 C   0  0  0  0  0  0  0  0  0  0  0  0
    9.6085    0.4645   -3.2768 C   0  0  0  0  0  0  0  0  0  0  0  0
   -1.8097    3.3002    5.8799 H   0  0  0  0  0  0  0  0  0  0  0  0
   -1.8400    1.8041    4.9777 H   0  0  0  0  0  0  0  0  0  0  0  0
   -3.2275    2.8660    4.9555 H   0  0  0  0  0  0  0  0  0  0  0  0
    0.2113    3.9988    4.8221 H   0  0  0  0  0  0  0  0  0  0  0  0
    0.3685    4.0239    3.0821 H   0  0  0  0  0  0  0  0  0  0  0  0
    0.2620    2.4986    3.9277 H   0  0  0  0  0  0  0  0  0  0  0  0
   -1.6950    5.4541    4.7108 H   0  0  0  0  0  0  0  0  0  0  0  0
   -3.1160    5.0282    3.7874 H   0  0  0  0  0  0  0  0  0  0  0  0
   -1.6523    5.5120    2.9649 H   0  0  0  0  0  0  0  0  0  0  0  0
    0.2475    6.4565    1.7747 H   0  0  0  0  0  0  0  0  0  0  0  0
    0.6975    4.9350    2.5065 H   0  0  0  0  0  0  0  0  0  0  0  0
   -0.3274    4.9546    1.0915 H   0  0  0  0  0  0  0  0  0  0  0  0
    2.5438    7.0952    1.6279 H   0  0  0  0  0  0  0  0  0  0  0  0
    3.7109    6.1222    0.7653 H   0  0  0  0  0  0  0  0  0  0  0  0
    3.0922    5.5818    2.3075 H   0  0  0  0  0  0  0  0  0  0  0  0
    1.0887    7.1154   -0.3489 H   0  0  0  0  0  0  0  0  0  0  0  0
    0.5880    5.6163   -1.0939 H   0  0  0  0  0  0  0  0  0  0  0  0
    2.2494    6.1423   -1.2200 H   0  0  0  0  0  0  0  0  0  0  0  0
   11.0511    1.4360   -1.2313 H   0  0  0  0  0  0  0  0  0  0  0  0
    9.8569    1.2318    0.0277 H   0  0  0  0  0  0  0  0  0  0  0  0
    9.5357    2.3016   -1.3159 H   0  0  0  0  0  0  0  0  0  0  0  0
   11.1714   -0.9257   -1.6312 H   0  0  0  0  0  0  0  0  0  0  0  0
    9.7350   -1.8663   -1.9554 H   0  0  0  0  0  0  0  0  0  0  0  0
   10.0118   -1.2169   -0.3570 H   0  0  0  0  0  0  0  0  0  0  0  0
   10.6582    0.5211   -3.4764 H   0  0  0  0  0  0  0  0  0  0  0  0
    9.1401    1.3816   -3.5676 H   0  0  0  0  0  0  0  0  0  0  0  0
    9.1830   -0.3451   -3.8321 H   0  0  0  0  0  0  0  0  0  0  0  0
   -0.8613   -5.2851   -4.7472 H   0  0  0  0  0  0  0  0  0  0  0  0
   -0.4381   -3.6270   -4.3939 H   0  0  0  0  0  0  0  0  0  0  0  0
   -2.0787   -4.0348   -4.8358 H   0  0  0  0  0  0  0  0  0  0  0  0
   -2.2709   -6.5647   -3.2010 H   0  0  0  0  0  0  0  0  0  0  0  0
   -3.4978   -5.3231   -3.2803 H   0  0  0  0  0  0  0  0  0  0  0  0
   -2.8673   -5.8307   -1.7318 H   0  0  0  0  0  0  0  0  0  0  0  0
    0.0012   -6.0411   -2.6716 H   0  0  0  0  0  0  0  0  0  0  0  0
   -0.4910   -5.3236   -1.1564 H   0  0  0  0  0  0  0  0  0  0  0  0
    0.4931   -4.4118   -2.2760 H   0  0  0  0  0  0  0  0  0  0  0  0
    0.2310   -6.6573    1.0865 H   0  0  0  0  0  0  0  0  0  0  0  0
    1.2106   -6.1800   -0.2794 H   0  0  0  0  0  0  0  0  0  0  0  0
   -0.2075   -5.2518    0.1455 H   0  0  0  0  0  0  0  0  0  0  0  0
    2.0860   -6.6672    2.5419 H   0  0  0  0  0  0  0  0  0  0  0  0
    3.1230   -5.2726    2.7231 H   0  0  0  0  0  0  0  0  0  0  0  0
    3.1669   -6.2082    1.2481 H   0  0  0  0  0  0  0  0  0  0  0  0
    0.1797   -5.3186    3.1075 H   0  0  0  0  0  0  0  0  0  0  0  0
   -0.2282   -3.8859    2.1943 H   0  0  0  0  0  0  0  0  0  0  0  0
    1.1620   -3.8809    3.2527 H   0  0  0  0  0  0  0  0  0  0  0  0
  -10.5240    1.7415   -3.6035 H   0  0  0  0  0  0  0  0  0  0  0  0
   -8.9979    1.0561   -4.1077 H   0  0  0  0  0  0  0  0  0  0  0  0
   -9.0412    2.6311   -3.3522 H   0  0  0  0  0  0  0  0  0  0  0  0
  -11.0024   -0.2741   -2.2842 H   0  0  0  0  0  0  0  0  0  0  0  0
   -9.8621   -0.8373   -1.0860 H   0  0  0  0  0  0  0  0  0  0  0  0
   -9.4789   -0.9673   -2.7858 H   0  0  0  0  0  0  0  0  0  0  0  0
  -11.1220    1.9029   -1.2847 H   0  0  0  0  0  0  0  0  0  0  0  0
   -9.6798    2.8366   -0.9665 H   0  0  0  0  0  0  0  0  0  0  0  0
  -10.0177    1.4032   -0.0262 H   0  0  0  0  0  0  0  0  0  0  0  0
   -7.9177    2.0099    0.1201 H   0  0  0  0  0  0  0  0  0  0  0  0
   -7.3947   -0.3387   -3.3194 H   0  0  0  0  0  0  0  0  0  0  0  0
   -3.5791   -3.0922   -3.6166 H   0  0  0  0  0  0  0  0  0  0  0  0
   -0.6378   -3.1940   -0.6687 H   0  0  0  0  0  0  0  0  0  0  0  0
   -4.1122    3.1886    2.9402 H   0  0  0  0  0  0  0  0  0  0  0  0
   -0.1955    2.4672    1.6786 H   0  0  0  0  0  0  0  0  0  0  0  0
    0.6932    2.9676    1.5064 H   0  0  0  0  0  0  0  0  0  0  0  0
    3.7143    4.5704   -0.8673 H   0  0  0  0  0  0  0  0  0  0  0  0
    7.4855    2.1010   -2.1889 H   0  0  0  0  0  0  0  0  0  0  0  0
    7.9199   -1.7826   -0.6566 H   0  0  0  0  0  0  0  0  0  0  0  0
    4.0317   -4.2652    0.9688 H   0  0  0  0  0  0  0  0  0  0  0  0
    0.1502   -2.9619    0.1148 H   0  0  0  0  0  0  0  0  0  0  0  0
  1  2  2  0  0  0  0
  1133  1  0  0  0  0
  2  3  1  0  0  0  0
  2 22  1  0  0  0  0
  3  4  2  0  0  0  0
  3  7  1  0  0  0  0
  4  5  1  0  0  0  0
  5  6  2  0  0  0  0
  5132  1  0  0  0  0
  6 52  1  0  0  0  0
  6  1  1  0  0  0  0
  7  8  1  0  0  0  0
  7 11  1  0  0  0  0
  8  9  2  0  0  0  0
  9 10  1  0  0  0  0
 10  4  1  0  0  0  0
 10 50  2  0  0  0  0
 11 12  2  0  0  0  0
 11 18  1  0  0  0  0
 13 14  1  0  0  0  0
 13 12  1  0  0  0  0
 13 51  2  0  0  0  0
 14  8  1  0  0  0  0
 14 15  2  0  0  0  0
 15 16  1  0  0  0  0
 15130  1  0  0  0  0
 16 60  1  0  0  0  0
 16 17  2  0  0  0  0
 17  9  1  0  0  0  0
 17131  1  0  0  0  0
 18 19  2  0  0  0  0
 18 23  1  0  0  0  0
 19 20  1  0  0  0  0
 19135  1  0  0  0  0
 20 56  1  0  0  0  0
 20 21  2  0  0  0  0
 21 12  1  0  0  0  0
 21134  1  0  0  0  0
 24 23  1  0  0  0  0
 24 22  1  0  0  0  0
 25 26  2  0  0  0  0
 25141  1  0  0  0  0
 26 27  1  0  0  0  0
 26 46  1  0  0  0  0
 27 28  2  0  0  0  0
 27 31  1  0  0  0  0
 28 29  1  0  0  0  0
 28 47  1  0  0  0  0
 29 30  2  0  0  0  0
 29140  1  0  0  0  0
 30 64  1  0  0  0  0
 30 25  1  0  0  0  0
 31 32  1  0  0  0  0
 32 33  2  0  0  0  0
 34 35  2  0  0  0  0
 34 41  1  0  0  0  0
 34 31  1  0  0  0  0
 36 37  1  0  0  0  0
 36 35  1  0  0  0  0
 36 48  2  0  0  0  0
 37 32  1  0  0  0  0
 37 38  2  0  0  0  0
 38 39  1  0  0  0  0
 38138  1  0  0  0  0
 39 72  1  0  0  0  0
 39 40  2  0  0  0  0
 40 33  1  0  0  0  0
 40139  1  0  0  0  0
 41 42  2  0  0  0  0
 41 45  1  0  0  0  0
 42 43  1  0  0  0  0
 42136  1  0  0  0  0
 43 68  1  0  0  0  0
 43 44  2  0  0  0  0
 44 35  1  0  0  0  0
 44137  1  0  0  0  0
 45 24  1  0  0  0  0
 46 24  1  0  0  0  0
 47 33  1  0  0  0  0
 47 49  2  0  0  0  0
 52 53  1  0  0  0  0
 52 54  1  0  0  0  0
 52 55  1  0  0  0  0
 53109  1  0  0  0  0
 53110  1  0  0  0  0
 53111  1  0  0  0  0
 54103  1  0  0  0  0
 54104  1  0  0  0  0
 54105  1  0  0  0  0
 55106  1  0  0  0  0
 55107  1  0  0  0  0
 55108  1  0  0  0  0
 56 57  1  0  0  0  0
 56 58  1  0  0  0  0
 56 59  1  0  0  0  0
 57 82  1  0  0  0  0
 57 83  1  0  0  0  0
 57 84  1  0  0  0  0
 58 76  1  0  0  0  0
 58 77  1  0  0  0  0
 58 78  1  0  0  0  0
 59 79  1  0  0  0  0
 59 80  1  0  0  0  0
 59 81  1  0  0  0  0
 60 61  1  0  0  0  0
 60 62  1  0  0  0  0
 60 63  1  0  0  0  0
 61121  1  0  0  0  0
 61122  1  0  0  0  0
 61123  1  0  0  0  0
 62127  1  0  0  0  0
 62128  1  0  0  0  0
 62129  1  0  0  0  0
 63124  1  0  0  0  0
 63125  1  0  0  0  0
 63126  1  0  0  0  0
 64 65  1  0  0  0  0
 64 66  1  0  0  0  0
 64 67  1  0  0  0  0
 65112  1  0  0  0  0
 65113  1  0  0  0  0
 65114  1  0  0  0  0
 66118  1  0  0  0  0
 66119  1  0  0  0  0
 66120  1  0  0  0  0
 67115  1  0  0  0  0
 67116  1  0  0  0  0
 67117  1  0  0  0  0
 68 69  1  0  0  0  0
 68 70  1  0  0  0  0
 68 71  1  0  0  0  0
 69 88  1  0  0  0  0
 69 89  1  0  0  0  0
 69 90  1  0  0  0  0
 70 91  1  0  0  0  0
 70 92  1  0  0  0  0
 70 93  1  0  0  0  0
 71 85  1  0  0  0  0
 71 86  1  0  0  0  0
 71 87  1  0  0  0  0
 72 73  1  0  0  0  0
 72 74  1  0  0  0  0
 72 75  1  0  0  0  0
 73 94  1  0  0  0  0
 73 95  1  0  0  0  0
 73 96  1  0  0  0  0
 74 97  1  0  0  0  0
 74 98  1  0  0  0  0
 74 99  1  0  0  0  0
 75100  1  0  0  0  0
 75101  1  0  0  0  0
 75102  1  0  0  0  0
M  CHG  2  24  -1  31  -1
M  END
