 energy: -198.026688769547 gnorm: 0.000507090005 xtb: 6.6.1 (8d0f1dd)
          11142414173D

124136  0     0  0            999 V2000
   -2.4113    1.1108   -0.0642 C   0  0  0  0  0  0  0  0  0  0  0  0
   -1.9833   -0.1878   -0.1294 C   0  0  0  0  0  0  0  0  0  0  0  0
   -0.6078   -0.4630   -0.1068 C   0  0  0  0  0  0  0  0  0  0  0  0
    0.3026    0.5736   -0.1027 C   0  0  0  0  0  0  0  0  0  0  0  0
   -0.1125    1.9063   -0.1833 C   0  0  0  0  0  0  0  0  0  0  0  0
   -1.4974    2.1803   -0.0697 C   0  0  0  0  0  0  0  0  0  0  0  0
    0.8249    2.9840   -0.3350 C   0  0  0  0  0  0  0  0  0  0  0  0
    0.3713    4.2890   -0.0308 C   0  0  0  0  0  0  0  0  0  0  0  0
   -1.0183    4.5258    0.1576 C   0  0  0  0  0  0  0  0  0  0  0  0
   -1.9275    3.5253    0.0734 C   0  0  0  0  0  0  0  0  0  0  0  0
    2.1844    2.8295   -0.7240 C   0  0  0  0  0  0  0  0  0  0  0  0
    3.0678    3.8982   -0.4420 C   0  0  0  0  0  0  0  0  0  0  0  0
    2.6269    5.1582   -0.0326 C   0  0  0  0  0  0  0  0  0  0  0  0
    1.2811    5.3578    0.0978 C   0  0  0  0  0  0  0  0  0  0  0  0
    3.0048    1.7803   -1.2945 C   0  0  0  0  0  0  0  0  0  0  0  0
    4.3414    2.2110   -1.1341 C   0  0  0  0  0  0  0  0  0  0  0  0
    2.7957    0.5585   -1.9928 C   0  0  0  0  0  0  0  0  0  0  0  0
    3.9034   -0.3075   -2.1503 C   0  0  0  0  0  0  0  0  0  0  0  0
    5.2058    0.1144   -1.8129 C   0  0  0  0  0  0  0  0  0  0  0  0
    5.4426    1.3876   -1.3761 C   0  0  0  0  0  0  0  0  0  0  0  0
    1.5525    0.1600   -2.5905 C   0  0  0  0  0  0  0  0  0  0  0  0
    1.3667   -1.1762   -3.0215 C   0  0  0  0  0  0  0  0  0  0  0  0
    2.4738   -2.0643   -3.0170 C   0  0  0  0  0  0  0  0  0  0  0  0
    3.7021   -1.6210   -2.6568 C   0  0  0  0  0  0  0  0  0  0  0  0
   -0.7293    0.6521   -3.2345 C   0  0  0  0  0  0  0  0  0  0  0  0
   -0.9472   -0.7002   -3.5381 C   0  0  0  0  0  0  0  0  0  0  0  0
    0.0983   -1.5816   -3.4751 C   0  0  0  0  0  0  0  0  0  0  0  0
    0.5116    1.0696   -2.7999 C   0  0  0  0  0  0  0  0  0  0  0  0
   -1.8239    1.6192   -3.2601 C   0  0  0  0  0  0  0  0  0  0  0  0
   -0.1101   -1.8336   -0.1975 C   0  0  0  0  0  0  0  0  0  0  0  0
   -1.5041    2.8912   -3.1215 N   0  0  0  0  0  0  0  0  0  0  0  0
   -2.5077    3.7895   -3.0116 N   0  0  0  0  0  0  0  0  0  0  0  0
   -3.8471    3.4206   -3.0735 C   0  0  0  0  0  0  0  0  0  0  0  0
   -4.0505    2.0624   -3.2817 N   0  0  0  0  0  0  0  0  0  0  0  0
   -3.0538    1.1533   -3.3505 N   0  0  0  0  0  0  0  0  0  0  0  0
   -4.7664    4.1993   -2.9558 O   0  0  0  0  0  0  0  0  0  0  0  0
   -0.9685   -2.7788   -0.5256 N   0  0  0  0  0  0  0  0  0  0  0  0
   -0.4655   -4.0218   -0.6893 N   0  0  0  0  0  0  0  0  0  0  0  0
    0.8839   -4.3326   -0.5714 C   0  0  0  0  0  0  0  0  0  0  0  0
    1.6836   -3.2556   -0.2068 N   0  0  0  0  0  0  0  0  0  0  0  0
    1.1822   -2.0162   -0.0099 N   0  0  0  0  0  0  0  0  0  0  0  0
    1.3077   -5.4479   -0.7763 O   0  0  0  0  0  0  0  0  0  0  0  0
    4.3614    3.5085   -0.6872 N   0  0  0  0  0  0  0  0  0  0  0  0
    9.2080    5.0928    3.2174 Si  0  0  0  0  0  0  0  0  0  0  0  0
    7.6135    4.2279    2.6025 C   0  0  0  0  0  0  0  0  0  0  0  0
    7.1969    4.6453    1.2063 C   0  0  0  0  0  0  0  0  0  0  0  0
    6.0154    3.9516    0.8603 O   0  0  0  0  0  0  0  0  0  0  0  0
    9.5344    4.5100    5.0027 C   0  0  0  0  0  0  0  0  0  0  0  0
    8.9740    6.9872    3.1833 C   0  0  0  0  0  0  0  0  0  0  0  0
   10.6771    4.6145    2.0955 C   0  0  0  0  0  0  0  0  0  0  0  0
    5.5389    4.2637   -0.4223 C   0  0  0  0  0  0  0  0  0  0  0  0
   -2.0663    5.1081   -2.7910 C   0  0  0  0  0  0  0  0  0  0  0  0
   -0.7262    5.3925   -3.0656 C   0  0  0  0  0  0  0  0  0  0  0  0
   -0.2184    6.6518   -2.8270 C   0  0  0  0  0  0  0  0  0  0  0  0
   -1.0329    7.6499   -2.3160 C   0  0  0  0  0  0  0  0  0  0  0  0
   -2.3620    7.3709   -2.0474 C   0  0  0  0  0  0  0  0  0  0  0  0
   -2.8850    6.1115   -2.2769 C   0  0  0  0  0  0  0  0  0  0  0  0
   -5.3428    1.5011   -3.3187 C   0  0  0  0  0  0  0  0  0  0  0  0
   -6.4291    2.1698   -3.8738 C   0  0  0  0  0  0  0  0  0  0  0  0
   -7.6656    1.5507   -3.8988 C   0  0  0  0  0  0  0  0  0  0  0  0
   -7.8287    0.2741   -3.3874 C   0  0  0  0  0  0  0  0  0  0  0  0
   -6.7412   -0.3936   -2.8459 C   0  0  0  0  0  0  0  0  0  0  0  0
   -5.5021    0.2125   -2.8102 C   0  0  0  0  0  0  0  0  0  0  0  0
    3.0812   -3.3319   -0.0503 C   0  0  0  0  0  0  0  0  0  0  0  0
    3.8501   -4.3791   -0.5541 C   0  0  0  0  0  0  0  0  0  0  0  0
    5.2240   -4.3558   -0.3978 C   0  0  0  0  0  0  0  0  0  0  0  0
    5.8497   -3.3030    0.2477 C   0  0  0  0  0  0  0  0  0  0  0  0
    5.0850   -2.2617    0.7495 C   0  0  0  0  0  0  0  0  0  0  0  0
    3.7139   -2.2734    0.6064 C   0  0  0  0  0  0  0  0  0  0  0  0
   -1.4140   -4.9729   -1.1157 C   0  0  0  0  0  0  0  0  0  0  0  0
   -2.4885   -4.5152   -1.8781 C   0  0  0  0  0  0  0  0  0  0  0  0
   -3.4583   -5.3997   -2.3032 C   0  0  0  0  0  0  0  0  0  0  0  0
   -3.3693   -6.7433   -1.9739 C   0  0  0  0  0  0  0  0  0  0  0  0
   -2.3061   -7.1935   -1.2093 C   0  0  0  0  0  0  0  0  0  0  0  0
   -1.3285   -6.3183   -0.7719 C   0  0  0  0  0  0  0  0  0  0  0  0
   -4.6440   -0.2897   -2.3920 H   0  0  0  0  0  0  0  0  0  0  0  0
   -6.8606   -1.3890   -2.4448 H   0  0  0  0  0  0  0  0  0  0  0  0
   -8.7984   -0.1999   -3.4127 H   0  0  0  0  0  0  0  0  0  0  0  0
   -8.5073    2.0708   -4.3307 H   0  0  0  0  0  0  0  0  0  0  0  0
   -6.3117    3.1597   -4.2809 H   0  0  0  0  0  0  0  0  0  0  0  0
   -3.9187    5.9154   -2.0528 H   0  0  0  0  0  0  0  0  0  0  0  0
   -3.0048    8.1402   -1.6458 H   0  0  0  0  0  0  0  0  0  0  0  0
   -0.6352    8.6364   -2.1297 H   0  0  0  0  0  0  0  0  0  0  0  0
    0.8203    6.8547   -3.0415 H   0  0  0  0  0  0  0  0  0  0  0  0
   -0.0985    4.6113   -3.4606 H   0  0  0  0  0  0  0  0  0  0  0  0
    8.8691    7.3581    2.1679 H   0  0  0  0  0  0  0  0  0  0  0  0
    9.8237    7.4960    3.6282 H   0  0  0  0  0  0  0  0  0  0  0  0
    8.0888    7.2875    3.7360 H   0  0  0  0  0  0  0  0  0  0  0  0
    8.7190    4.7833    5.6652 H   0  0  0  0  0  0  0  0  0  0  0  0
   10.4409    4.9553    5.3995 H   0  0  0  0  0  0  0  0  0  0  0  0
    9.6498    3.4320    5.0546 H   0  0  0  0  0  0  0  0  0  0  0  0
   10.5433    4.9836    1.0828 H   0  0  0  0  0  0  0  0  0  0  0  0
   10.7990    3.5369    2.0387 H   0  0  0  0  0  0  0  0  0  0  0  0
   11.6084    5.0279    2.4706 H   0  0  0  0  0  0  0  0  0  0  0  0
    7.7428    3.1459    2.6047 H   0  0  0  0  0  0  0  0  0  0  0  0
    6.7830    4.4382    3.2759 H   0  0  0  0  0  0  0  0  0  0  0  0
    7.0125    5.7296    1.1632 H   0  0  0  0  0  0  0  0  0  0  0  0
    7.9878    4.4106    0.4769 H   0  0  0  0  0  0  0  0  0  0  0  0
    6.3053    4.0276   -1.1828 H   0  0  0  0  0  0  0  0  0  0  0  0
    5.3103    5.3401   -0.4963 H   0  0  0  0  0  0  0  0  0  0  0  0
    3.3263    5.9571    0.1589 H   0  0  0  0  0  0  0  0  0  0  0  0
    0.8950    6.3352    0.3459 H   0  0  0  0  0  0  0  0  0  0  0  0
   -1.3357    5.5423    0.3411 H   0  0  0  0  0  0  0  0  0  0  0  0
   -2.9863    3.7270    0.1597 H   0  0  0  0  0  0  0  0  0  0  0  0
   -2.5389   -3.4665   -2.1253 H   0  0  0  0  0  0  0  0  0  0  0  0
   -4.2845   -5.0407   -2.8987 H   0  0  0  0  0  0  0  0  0  0  0  0
   -4.1265   -7.4355   -2.3103 H   0  0  0  0  0  0  0  0  0  0  0  0
   -2.2371   -8.2373   -0.9421 H   0  0  0  0  0  0  0  0  0  0  0  0
   -0.5105   -6.6785   -0.1717 H   0  0  0  0  0  0  0  0  0  0  0  0
    3.3868   -5.2036   -1.0668 H   0  0  0  0  0  0  0  0  0  0  0  0
    5.8103   -5.1713   -0.7948 H   0  0  0  0  0  0  0  0  0  0  0  0
    6.9237   -3.2943    0.3595 H   0  0  0  0  0  0  0  0  0  0  0  0
    5.5583   -1.4331    1.2547 H   0  0  0  0  0  0  0  0  0  0  0  0
    3.1140   -1.4661    0.9921 H   0  0  0  0  0  0  0  0  0  0  0  0
    6.0219   -0.5806   -1.9429 H   0  0  0  0  0  0  0  0  0  0  0  0
    6.4447    1.7352   -1.1810 H   0  0  0  0  0  0  0  0  0  0  0  0
   -3.4683    1.3353   -0.0094 H   0  0  0  0  0  0  0  0  0  0  0  0
   -2.6799   -1.0103   -0.1609 H   0  0  0  0  0  0  0  0  0  0  0  0
    1.3501    0.3398   -0.0338 H   0  0  0  0  0  0  0  0  0  0  0  0
    0.6692    2.1184   -2.6211 H   0  0  0  0  0  0  0  0  0  0  0  0
   -1.9308   -1.0131   -3.8506 H   0  0  0  0  0  0  0  0  0  0  0  0
   -0.0383   -2.6129   -3.7723 H   0  0  0  0  0  0  0  0  0  0  0  0
    2.3251   -3.0834   -3.3466 H   0  0  0  0  0  0  0  0  0  0  0  0
    4.5612   -2.2736   -2.7194 H   0  0  0  0  0  0  0  0  0  0  0  0
  1  2  2  0  0  0  0
  1117  1  0  0  0  0
  2  3  1  0  0  0  0
  2118  1  0  0  0  0
  3  4  2  0  0  0  0
  3 30  1  0  0  0  0
  4  5  1  0  0  0  0
  4119  1  0  0  0  0
  5  6  2  0  0  0  0
  5  7  1  0  0  0  0
  6  1  1  0  0  0  0
  7  8  2  0  0  0  0
  7 11  1  0  0  0  0
  8  9  1  0  0  0  0
  9 10  2  0  0  0  0
  9103  1  0  0  0  0
 10  6  1  0  0  0  0
 10104  1  0  0  0  0
 11 12  2  0  0  0  0
 11 15  1  0  0  0  0
 12 43  1  0  0  0  0
 12 13  1  0  0  0  0
 13 14  2  0  0  0  0
 13101  1  0  0  0  0
 14  8  1  0  0  0  0
 14102  1  0  0  0  0
 15 16  1  0  0  0  0
 15 17  2  0  0  0  0
 16 43  1  0  0  0  0
 17 18  1  0  0  0  0
 17 21  1  0  0  0  0
 18 19  2  0  0  0  0
 19 20  1  0  0  0  0
 19115  1  0  0  0  0
 20 16  2  0  0  0  0
 20116  1  0  0  0  0
 21 22  2  0  0  0  0
 21 28  1  0  0  0  0
 22 23  1  0  0  0  0
 23 24  2  0  0  0  0
 23123  1  0  0  0  0
 24 18  1  0  0  0  0
 24124  1  0  0  0  0
 25 26  1  0  0  0  0
 25 29  1  0  0  0  0
 26 27  2  0  0  0  0
 26121  1  0  0  0  0
 27 22  1  0  0  0  0
 27122  1  0  0  0  0
 28 25  2  0  0  0  0
 28120  1  0  0  0  0
 29 31  2  0  0  0  0
 30 37  1  0  0  0  0
 31 32  1  0  0  0  0
 32 52  1  0  0  0  0
 32 33  1  0  0  0  0
 33 34  1  0  0  0  0
 33 36  2  0  0  0  0
 34 58  1  0  0  0  0
 34 35  1  0  0  0  0
 35 29  1  0  0  0  0
 37 38  1  0  0  0  0
 38 70  1  0  0  0  0
 38 39  1  0  0  0  0
 39 40  1  0  0  0  0
 39 42  2  0  0  0  0
 40 64  1  0  0  0  0
 40 41  1  0  0  0  0
 41 30  2  0  0  0  0
 43 51  1  0  0  0  0
 44 45  1  0  0  0  0
 44 48  1  0  0  0  0
 44 49  1  0  0  0  0
 44 50  1  0  0  0  0
 45 46  1  0  0  0  0
 45 95  1  0  0  0  0
 45 96  1  0  0  0  0
 46 47  1  0  0  0  0
 46 97  1  0  0  0  0
 46 98  1  0  0  0  0
 47 51  1  0  0  0  0
 48 89  1  0  0  0  0
 48 90  1  0  0  0  0
 48 91  1  0  0  0  0
 49 86  1  0  0  0  0
 49 87  1  0  0  0  0
 49 88  1  0  0  0  0
 50 92  1  0  0  0  0
 50 93  1  0  0  0  0
 50 94  1  0  0  0  0
 51 99  1  0  0  0  0
 51100  1  0  0  0  0
 52 53  2  0  0  0  0
 52 57  1  0  0  0  0
 53 54  1  0  0  0  0
 53 85  1  0  0  0  0
 54 55  2  0  0  0  0
 54 84  1  0  0  0  0
 55 56  1  0  0  0  0
 55 83  1  0  0  0  0
 56 57  2  0  0  0  0
 56 82  1  0  0  0  0
 57 81  1  0  0  0  0
 58 59  2  0  0  0  0
 58 63  1  0  0  0  0
 59 60  1  0  0  0  0
 59 80  1  0  0  0  0
 60 61  2  0  0  0  0
 60 79  1  0  0  0  0
 61 62  1  0  0  0  0
 61 78  1  0  0  0  0
 62 63  2  0  0  0  0
 62 77  1  0  0  0  0
 63 76  1  0  0  0  0
 64 65  2  0  0  0  0
 64 69  1  0  0  0  0
 65 66  1  0  0  0  0
 65110  1  0  0  0  0
 66 67  2  0  0  0  0
 66111  1  0  0  0  0
 67 68  1  0  0  0  0
 67112  1  0  0  0  0
 68 69  2  0  0  0  0
 68113  1  0  0  0  0
 69114  1  0  0  0  0
 70 71  2  0  0  0  0
 70 75  1  0  0  0  0
 71 72  1  0  0  0  0
 71105  1  0  0  0  0
 72 73  2  0  0  0  0
 72106  1  0  0  0  0
 73 74  1  0  0  0  0
 73107  1  0  0  0  0
 74 75  2  0  0  0  0
 74108  1  0  0  0  0
 75109  1  0  0  0  0
M  END
