 energy: -198.304045696494 gnorm: 0.000372683594 xtb: 6.6.1 (8d0f1dd)
          11142414183D

124136  0     0  0            999 V2000
   -2.4420    0.9861   -0.1298 C   0  0  0  0  0  0  0  0  0  0  0  0
   -1.9890   -0.3054   -0.1863 C   0  0  0  0  0  0  0  0  0  0  0  0
   -0.6121   -0.5633   -0.1253 C   0  0  0  0  0  0  0  0  0  0  0  0
    0.2780    0.4888   -0.0938 C   0  0  0  0  0  0  0  0  0  0  0  0
   -0.1572    1.8152   -0.1763 C   0  0  0  0  0  0  0  0  0  0  0  0
   -1.5473    2.0701   -0.1018 C   0  0  0  0  0  0  0  0  0  0  0  0
    0.7643    2.9095   -0.2953 C   0  0  0  0  0  0  0  0  0  0  0  0
    0.2919    4.2048    0.0182 C   0  0  0  0  0  0  0  0  0  0  0  0
   -1.1072    4.4226    0.1633 C   0  0  0  0  0  0  0  0  0  0  0  0
   -1.9978    3.4103    0.0359 C   0  0  0  0  0  0  0  0  0  0  0  0
    2.1280    2.7796   -0.6728 C   0  0  0  0  0  0  0  0  0  0  0  0
    2.9999    3.8470   -0.3642 C   0  0  0  0  0  0  0  0  0  0  0  0
    2.5430    5.0919    0.0704 C   0  0  0  0  0  0  0  0  0  0  0  0
    1.1916    5.2758    0.1851 C   0  0  0  0  0  0  0  0  0  0  0  0
    2.9544    1.7499   -1.2669 C   0  0  0  0  0  0  0  0  0  0  0  0
    4.2878    2.1793   -1.0950 C   0  0  0  0  0  0  0  0  0  0  0  0
    2.7406    0.5454   -1.9901 C   0  0  0  0  0  0  0  0  0  0  0  0
    3.8437   -0.3232   -2.1571 C   0  0  0  0  0  0  0  0  0  0  0  0
    5.1462    0.0948   -1.8189 C   0  0  0  0  0  0  0  0  0  0  0  0
    5.3868    1.3615   -1.3596 C   0  0  0  0  0  0  0  0  0  0  0  0
    1.4948    0.1688   -2.5951 C   0  0  0  0  0  0  0  0  0  0  0  0
    1.2945   -1.1640   -3.0265 C   0  0  0  0  0  0  0  0  0  0  0  0
    2.3931   -2.0641   -3.0182 C   0  0  0  0  0  0  0  0  0  0  0  0
    3.6282   -1.6352   -2.6649 C   0  0  0  0  0  0  0  0  0  0  0  0
   -0.7742    0.7014   -3.2548 C   0  0  0  0  0  0  0  0  0  0  0  0
   -1.0079   -0.6480   -3.5553 C   0  0  0  0  0  0  0  0  0  0  0  0
    0.0219   -1.5485   -3.4840 C   0  0  0  0  0  0  0  0  0  0  0  0
    0.4694    1.0948   -2.8094 C   0  0  0  0  0  0  0  0  0  0  0  0
   -1.8535    1.6946   -3.2912 C   0  0  0  0  0  0  0  0  0  0  0  0
   -0.0860   -1.9309   -0.2007 C   0  0  0  0  0  0  0  0  0  0  0  0
   -1.4876    2.9543   -3.1935 N   0  0  0  0  0  0  0  0  0  0  0  0
   -2.4929    3.8905   -3.0387 N   0  0  0  0  0  0  0  0  0  0  0  0
   -3.8282    3.5307   -3.0310 C   0  0  0  0  0  0  0  0  0  0  0  0
   -4.0763    2.1958   -3.2951 N   0  0  0  0  0  0  0  0  0  0  0  0
   -3.0833    1.2385   -3.3664 N   0  0  0  0  0  0  0  0  0  0  0  0
   -4.7353    4.3142   -2.8110 O   0  0  0  0  0  0  0  0  0  0  0  0
   -0.9278   -2.8762   -0.5538 N   0  0  0  0  0  0  0  0  0  0  0  0
   -0.3850   -4.1389   -0.6865 N   0  0  0  0  0  0  0  0  0  0  0  0
    0.9701   -4.3982   -0.5847 C   0  0  0  0  0  0  0  0  0  0  0  0
    1.7427   -3.3240   -0.1854 N   0  0  0  0  0  0  0  0  0  0  0  0
    1.1981   -2.0755    0.0463 N   0  0  0  0  0  0  0  0  0  0  0  0
    1.4294   -5.4997   -0.8311 O   0  0  0  0  0  0  0  0  0  0  0  0
    4.3006    3.4697   -0.6148 N   0  0  0  0  0  0  0  0  0  0  0  0
    9.2085    5.1286    3.1743 Si  0  0  0  0  0  0  0  0  0  0  0  0
    7.5834    4.2832    2.6321 C   0  0  0  0  0  0  0  0  0  0  0  0
    7.1392    4.6667    1.2329 C   0  0  0  0  0  0  0  0  0  0  0  0
    5.9541    3.9705    0.9286 O   0  0  0  0  0  0  0  0  0  0  0  0
    9.5886    4.6080    4.9699 C   0  0  0  0  0  0  0  0  0  0  0  0
    9.0250    7.0285    3.0884 C   0  0  0  0  0  0  0  0  0  0  0  0
   10.6436    4.5858    2.0357 C   0  0  0  0  0  0  0  0  0  0  0  0
    5.4647    4.2401   -0.3642 C   0  0  0  0  0  0  0  0  0  0  0  0
   -2.0114    5.1820   -2.8056 C   0  0  0  0  0  0  0  0  0  0  0  0
   -0.6315    5.3931   -2.9220 C   0  0  0  0  0  0  0  0  0  0  0  0
   -0.0848    6.6348   -2.6832 C   0  0  0  0  0  0  0  0  0  0  0  0
   -0.8918    7.7034   -2.3267 C   0  0  0  0  0  0  0  0  0  0  0  0
   -2.2578    7.5041   -2.2191 C   0  0  0  0  0  0  0  0  0  0  0  0
   -2.8208    6.2643   -2.4538 C   0  0  0  0  0  0  0  0  0  0  0  0
   -5.3697    1.6662   -3.3502 C   0  0  0  0  0  0  0  0  0  0  0  0
   -6.4667    2.4019   -3.7976 C   0  0  0  0  0  0  0  0  0  0  0  0
   -7.7125    1.8077   -3.8603 C   0  0  0  0  0  0  0  0  0  0  0  0
   -7.8886    0.4831   -3.4954 C   0  0  0  0  0  0  0  0  0  0  0  0
   -6.7964   -0.2528   -3.0625 C   0  0  0  0  0  0  0  0  0  0  0  0
   -5.5479    0.3277   -2.9900 C   0  0  0  0  0  0  0  0  0  0  0  0
    3.1328   -3.3555   -0.0360 C   0  0  0  0  0  0  0  0  0  0  0  0
    3.9368   -4.4114   -0.4693 C   0  0  0  0  0  0  0  0  0  0  0  0
    5.3082   -4.3463   -0.3136 C   0  0  0  0  0  0  0  0  0  0  0  0
    5.9117   -3.2440    0.2677 C   0  0  0  0  0  0  0  0  0  0  0  0
    5.1174   -2.1951    0.7034 C   0  0  0  0  0  0  0  0  0  0  0  0
    3.7484   -2.2467    0.5574 C   0  0  0  0  0  0  0  0  0  0  0  0
   -1.3133   -5.1085   -1.0793 C   0  0  0  0  0  0  0  0  0  0  0  0
   -2.4668   -4.6809   -1.7428 C   0  0  0  0  0  0  0  0  0  0  0  0
   -3.4300   -5.5913   -2.1226 C   0  0  0  0  0  0  0  0  0  0  0  0
   -3.2673   -6.9406   -1.8491 C   0  0  0  0  0  0  0  0  0  0  0  0
   -2.1290   -7.3653   -1.1841 C   0  0  0  0  0  0  0  0  0  0  0  0
   -1.1570   -6.4643   -0.7928 C   0  0  0  0  0  0  0  0  0  0  0  0
   -4.6882   -0.2314   -2.6576 H   0  0  0  0  0  0  0  0  0  0  0  0
   -6.9207   -1.2875   -2.7754 H   0  0  0  0  0  0  0  0  0  0  0  0
   -8.8673    0.0277   -3.5510 H   0  0  0  0  0  0  0  0  0  0  0  0
   -8.5564    2.3872   -4.2086 H   0  0  0  0  0  0  0  0  0  0  0  0
   -6.3463    3.4314   -4.0895 H   0  0  0  0  0  0  0  0  0  0  0  0
   -3.8843    6.1370   -2.3557 H   0  0  0  0  0  0  0  0  0  0  0  0
   -2.9022    8.3275   -1.9418 H   0  0  0  0  0  0  0  0  0  0  0  0
   -0.4628    8.6772   -2.1354 H   0  0  0  0  0  0  0  0  0  0  0  0
    0.9846    6.7678   -2.7718 H   0  0  0  0  0  0  0  0  0  0  0  0
   -0.0056    4.5605   -3.1935 H   0  0  0  0  0  0  0  0  0  0  0  0
    8.8819    7.3666    2.0664 H   0  0  0  0  0  0  0  0  0  0  0  0
    9.9057    7.5308    3.4775 H   0  0  0  0  0  0  0  0  0  0  0  0
    8.1721    7.3687    3.6682 H   0  0  0  0  0  0  0  0  0  0  0  0
    8.7914    4.9024    5.6451 H   0  0  0  0  0  0  0  0  0  0  0  0
   10.5057    5.0667    5.3260 H   0  0  0  0  0  0  0  0  0  0  0  0
    9.7062    3.5323    5.0537 H   0  0  0  0  0  0  0  0  0  0  0  0
   10.4991    4.9394    1.0191 H   0  0  0  0  0  0  0  0  0  0  0  0
   10.7275    3.5038    1.9968 H   0  0  0  0  0  0  0  0  0  0  0  0
   11.5959    4.9750    2.3835 H   0  0  0  0  0  0  0  0  0  0  0  0
    7.6886    3.1988    2.6616 H   0  0  0  0  0  0  0  0  0  0  0  0
    6.7737    4.5295    3.3187 H   0  0  0  0  0  0  0  0  0  0  0  0
    6.9605    5.7521    1.1662 H   0  0  0  0  0  0  0  0  0  0  0  0
    7.9180    4.4125    0.4953 H   0  0  0  0  0  0  0  0  0  0  0  0
    6.2384    3.9954   -1.1150 H   0  0  0  0  0  0  0  0  0  0  0  0
    5.2266    5.3136   -0.4607 H   0  0  0  0  0  0  0  0  0  0  0  0
    3.2329    5.8936    0.2893 H   0  0  0  0  0  0  0  0  0  0  0  0
    0.7937    6.2465    0.4439 H   0  0  0  0  0  0  0  0  0  0  0  0
   -1.4446    5.4347    0.3389 H   0  0  0  0  0  0  0  0  0  0  0  0
   -3.0621    3.5992    0.0777 H   0  0  0  0  0  0  0  0  0  0  0  0
   -2.5795   -3.6283   -1.9463 H   0  0  0  0  0  0  0  0  0  0  0  0
   -4.3144   -5.2470   -2.6403 H   0  0  0  0  0  0  0  0  0  0  0  0
   -4.0222   -7.6539   -2.1484 H   0  0  0  0  0  0  0  0  0  0  0  0
   -1.9975   -8.4143   -0.9571 H   0  0  0  0  0  0  0  0  0  0  0  0
   -0.2805   -6.8109   -0.2724 H   0  0  0  0  0  0  0  0  0  0  0  0
    3.4944   -5.2765   -0.9307 H   0  0  0  0  0  0  0  0  0  0  0  0
    5.9145   -5.1720   -0.6613 H   0  0  0  0  0  0  0  0  0  0  0  0
    6.9864   -3.2026    0.3785 H   0  0  0  0  0  0  0  0  0  0  0  0
    5.5687   -1.3240    1.1574 H   0  0  0  0  0  0  0  0  0  0  0  0
    3.1292   -1.4301    0.8871 H   0  0  0  0  0  0  0  0  0  0  0  0
    5.9624   -0.5990   -1.9599 H   0  0  0  0  0  0  0  0  0  0  0  0
    6.3920    1.7036   -1.1630 H   0  0  0  0  0  0  0  0  0  0  0  0
   -3.5042    1.1923   -0.1128 H   0  0  0  0  0  0  0  0  0  0  0  0
   -2.6704   -1.1392   -0.2459 H   0  0  0  0  0  0  0  0  0  0  0  0
    1.3271    0.2682   -0.0045 H   0  0  0  0  0  0  0  0  0  0  0  0
    0.6382    2.1408   -2.6237 H   0  0  0  0  0  0  0  0  0  0  0  0
   -1.9962   -0.9460   -3.8682 H   0  0  0  0  0  0  0  0  0  0  0  0
   -0.1329   -2.5796   -3.7738 H   0  0  0  0  0  0  0  0  0  0  0  0
    2.2309   -3.0849   -3.3376 H   0  0  0  0  0  0  0  0  0  0  0  0
    4.4798   -2.2989   -2.7241 H   0  0  0  0  0  0  0  0  0  0  0  0
  1  2  2  0  0  0  0
  1117  1  0  0  0  0
  2  3  1  0  0  0  0
  2118  1  0  0  0  0
  3  4  2  0  0  0  0
  3 30  1  0  0  0  0
  4  5  1  0  0  0  0
  4119  1  0  0  0  0
  5  6  2  0  0  0  0
  5  7  1  0  0  0  0
  6  1  1  0  0  0  0
  7  8  2  0  0  0  0
  7 11  1  0  0  0  0
  8  9  1  0  0  0  0
  9 10  2  0  0  0  0
  9103  1  0  0  0  0
 10  6  1  0  0  0  0
 10104  1  0  0  0  0
 11 12  2  0  0  0  0
 11 15  1  0  0  0  0
 12 43  1  0  0  0  0
 12 13  1  0  0  0  0
 13 14  2  0  0  0  0
 13101  1  0  0  0  0
 14  8  1  0  0  0  0
 14102  1  0  0  0  0
 15 16  1  0  0  0  0
 15 17  2  0  0  0  0
 16 43  1  0  0  0  0
 17 18  1  0  0  0  0
 17 21  1  0  0  0  0
 18 19  2  0  0  0  0
 19 20  1  0  0  0  0
 19115  1  0  0  0  0
 20 16  2  0  0  0  0
 20116  1  0  0  0  0
 21 22  2  0  0  0  0
 21 28  1  0  0  0  0
 22 23  1  0  0  0  0
 23 24  2  0  0  0  0
 23123  1  0  0  0  0
 24 18  1  0  0  0  0
 24124  1  0  0  0  0
 25 26  1  0  0  0  0
 25 29  1  0  0  0  0
 26 27  2  0  0  0  0
 26121  1  0  0  0  0
 27 22  1  0  0  0  0
 27122  1  0  0  0  0
 28 25  2  0  0  0  0
 28120  1  0  0  0  0
 29 31  2  0  0  0  0
 30 37  1  0  0  0  0
 31 32  1  0  0  0  0
 32 52  1  0  0  0  0
 32 33  1  0  0  0  0
 33 34  1  0  0  0  0
 33 36  2  0  0  0  0
 34 58  1  0  0  0  0
 34 35  1  0  0  0  0
 35 29  1  0  0  0  0
 37 38  1  0  0  0  0
 38 70  1  0  0  0  0
 38 39  1  0  0  0  0
 39 40  1  0  0  0  0
 39 42  2  0  0  0  0
 40 64  1  0  0  0  0
 40 41  1  0  0  0  0
 41 30  2  0  0  0  0
 43 51  1  0  0  0  0
 44 45  1  0  0  0  0
 44 48  1  0  0  0  0
 44 49  1  0  0  0  0
 44 50  1  0  0  0  0
 45 46  1  0  0  0  0
 45 95  1  0  0  0  0
 45 96  1  0  0  0  0
 46 47  1  0  0  0  0
 46 97  1  0  0  0  0
 46 98  1  0  0  0  0
 47 51  1  0  0  0  0
 48 89  1  0  0  0  0
 48 90  1  0  0  0  0
 48 91  1  0  0  0  0
 49 86  1  0  0  0  0
 49 87  1  0  0  0  0
 49 88  1  0  0  0  0
 50 92  1  0  0  0  0
 50 93  1  0  0  0  0
 50 94  1  0  0  0  0
 51 99  1  0  0  0  0
 51100  1  0  0  0  0
 52 53  2  0  0  0  0
 52 57  1  0  0  0  0
 53 54  1  0  0  0  0
 53 85  1  0  0  0  0
 54 55  2  0  0  0  0
 54 84  1  0  0  0  0
 55 56  1  0  0  0  0
 55 83  1  0  0  0  0
 56 57  2  0  0  0  0
 56 82  1  0  0  0  0
 57 81  1  0  0  0  0
 58 59  2  0  0  0  0
 58 63  1  0  0  0  0
 59 60  1  0  0  0  0
 59 80  1  0  0  0  0
 60 61  2  0  0  0  0
 60 79  1  0  0  0  0
 61 62  1  0  0  0  0
 61 78  1  0  0  0  0
 62 63  2  0  0  0  0
 62 77  1  0  0  0  0
 63 76  1  0  0  0  0
 64 65  2  0  0  0  0
 64 69  1  0  0  0  0
 65 66  1  0  0  0  0
 65110  1  0  0  0  0
 66 67  2  0  0  0  0
 66111  1  0  0  0  0
 67 68  1  0  0  0  0
 67112  1  0  0  0  0
 68 69  2  0  0  0  0
 68113  1  0  0  0  0
 69114  1  0  0  0  0
 70 71  2  0  0  0  0
 70 75  1  0  0  0  0
 71 72  1  0  0  0  0
 71105  1  0  0  0  0
 72 73  2  0  0  0  0
 72106  1  0  0  0  0
 73 74  1  0  0  0  0
 73107  1  0  0  0  0
 74 75  2  0  0  0  0
 74108  1  0  0  0  0
 75109  1  0  0  0  0
M  CHG  1   1  -1
M  END
