 energy: -395.297809492599 gnorm: 0.000399911786 xtb: 6.6.1 (8d0f1dd)
          11142414553D

248272  0     0  0            999 V2000
   -3.0209    1.7181   -0.9344 C   0  0  0  0  0  0  0  0  0  0  0  0
   -2.2691    0.6128   -0.6325 C   0  0  0  0  0  0  0  0  0  0  0  0
   -0.9046    0.7657   -0.3347 C   0  0  0  0  0  0  0  0  0  0  0  0
   -0.3219    2.0144   -0.4277 C   0  0  0  0  0  0  0  0  0  0  0  0
   -1.0457    3.1343   -0.8413 C   0  0  0  0  0  0  0  0  0  0  0  0
   -2.4450    3.0017   -1.0133 C   0  0  0  0  0  0  0  0  0  0  0  0
   -0.4098    4.4079   -1.0192 C   0  0  0  0  0  0  0  0  0  0  0  0
   -1.2363    5.5542   -1.0157 C   0  0  0  0  0  0  0  0  0  0  0  0
   -2.6451    5.3966   -1.1203 C   0  0  0  0  0  0  0  0  0  0  0  0
   -3.2249    4.1725   -1.1964 C   0  0  0  0  0  0  0  0  0  0  0  0
    0.9914    4.5936   -1.1397 C   0  0  0  0  0  0  0  0  0  0  0  0
    1.5063    5.8873   -0.8851 C   0  0  0  0  0  0  0  0  0  0  0  0
    0.6814    7.0111   -0.7785 C   0  0  0  0  0  0  0  0  0  0  0  0
   -0.6687    6.8415   -0.9139 C   0  0  0  0  0  0  0  0  0  0  0  0
    2.1387    3.7488   -1.3852 C   0  0  0  0  0  0  0  0  0  0  0  0
    3.2671    4.5448   -1.0865 C   0  0  0  0  0  0  0  0  0  0  0  0
    2.3710    2.4356   -1.8753 C   0  0  0  0  0  0  0  0  0  0  0  0
    3.6638    1.8880   -1.7038 C   0  0  0  0  0  0  0  0  0  0  0  0
    4.7381    2.6976   -1.2779 C   0  0  0  0  0  0  0  0  0  0  0  0
    4.5656    4.0317   -1.0357 C   0  0  0  0  0  0  0  0  0  0  0  0
    1.3985    1.6363   -2.5667 C   0  0  0  0  0  0  0  0  0  0  0  0
    1.6180    0.2482   -2.7462 C   0  0  0  0  0  0  0  0  0  0  0  0
    2.8769   -0.3021   -2.3913 C   0  0  0  0  0  0  0  0  0  0  0  0
    3.8773    0.5057   -1.9602 C   0  0  0  0  0  0  0  0  0  0  0  0
   -0.7367    1.4141   -3.6923 C   0  0  0  0  0  0  0  0  0  0  0  0
   -0.5717    0.0195   -3.7517 C   0  0  0  0  0  0  0  0  0  0  0  0
    0.5996   -0.5387   -3.3168 C   0  0  0  0  0  0  0  0  0  0  0  0
    0.2486    2.2004   -3.1254 C   0  0  0  0  0  0  0  0  0  0  0  0
   -1.9512    2.0522   -4.1761 C   0  0  0  0  0  0  0  0  0  0  0  0
   -0.0575   -0.3639    0.0255 C   0  0  0  0  0  0  0  0  0  0  0  0
   -2.0320    3.3704   -4.0696 N   0  0  0  0  0  0  0  0  0  0  0  0
   -3.1481    3.9746   -4.4333 N   0  0  0  0  0  0  0  0  0  0  0  0
   -4.2554    3.2820   -4.9404 C   0  0  0  0  0  0  0  0  0  0  0  0
   -4.0210    1.9087   -5.0869 N   0  0  0  0  0  0  0  0  0  0  0  0
   -2.9183    1.3030   -4.6830 N   0  0  0  0  0  0  0  0  0  0  0  0
   -5.3043    3.7987   -5.2175 O   0  0  0  0  0  0  0  0  0  0  0  0
   -0.5468   -1.5872   -0.0651 N   0  0  0  0  0  0  0  0  0  0  0  0
    0.2637   -2.5989    0.2329 N   0  0  0  0  0  0  0  0  0  0  0  0
    1.5852   -2.4332    0.6554 C   0  0  0  0  0  0  0  0  0  0  0  0
    2.0011   -1.0989    0.6758 N   0  0  0  0  0  0  0  0  0  0  0  0
    1.1891   -0.0920    0.3733 N   0  0  0  0  0  0  0  0  0  0  0  0
    2.2976   -3.3566    0.9558 O   0  0  0  0  0  0  0  0  0  0  0  0
    2.8761    5.8366   -0.8402 N   0  0  0  0  0  0  0  0  0  0  0  0
    7.3014    7.0653    3.5713 Si  0  0  0  0  0  0  0  0  0  0  0  0
    5.7526    6.3210    2.7052 C   0  0  0  0  0  0  0  0  0  0  0  0
    5.3228    7.0801    1.4651 C   0  0  0  0  0  0  0  0  0  0  0  0
    4.1866    6.4187    0.9317 O   0  0  0  0  0  0  0  0  0  0  0  0
    7.8382    5.8031    4.8987 C   0  0  0  0  0  0  0  0  0  0  0  0
    6.8358    8.7265    4.3733 C   0  0  0  0  0  0  0  0  0  0  0  0
    8.6943    7.2877    2.2904 C   0  0  0  0  0  0  0  0  0  0  0  0
    3.7719    6.8362   -0.3415 C   0  0  0  0  0  0  0  0  0  0  0  0
   -3.1305    5.3798   -4.2995 C   0  0  0  0  0  0  0  0  0  0  0  0
   -1.8815    6.0062   -4.3092 C   0  0  0  0  0  0  0  0  0  0  0  0
   -1.7953    7.3733   -4.1559 C   0  0  0  0  0  0  0  0  0  0  0  0
   -2.9468    8.1303   -3.9922 C   0  0  0  0  0  0  0  0  0  0  0  0
   -4.1843    7.5071   -3.9779 C   0  0  0  0  0  0  0  0  0  0  0  0
   -4.2886    6.1361   -4.1272 C   0  0  0  0  0  0  0  0  0  0  0  0
   -5.0049    1.0639   -5.6458 C   0  0  0  0  0  0  0  0  0  0  0  0
   -5.8534    1.4925   -6.6639 C   0  0  0  0  0  0  0  0  0  0  0  0
   -6.7753    0.6063   -7.1897 C   0  0  0  0  0  0  0  0  0  0  0  0
   -6.8568   -0.6934   -6.7149 C   0  0  0  0  0  0  0  0  0  0  0  0
   -6.0021   -1.1179   -5.7075 C   0  0  0  0  0  0  0  0  0  0  0  0
   -5.0750   -0.2473   -5.1735 C   0  0  0  0  0  0  0  0  0  0  0  0
    3.3163   -0.7084    1.0069 C   0  0  0  0  0  0  0  0  0  0  0  0
    4.4033   -1.5794    0.9760 C   0  0  0  0  0  0  0  0  0  0  0  0
    5.6691   -1.0965    1.2537 C   0  0  0  0  0  0  0  0  0  0  0  0
    5.8714    0.2388    1.5594 C   0  0  0  0  0  0  0  0  0  0  0  0
    4.7886    1.1037    1.6003 C   0  0  0  0  0  0  0  0  0  0  0  0
    3.5220    0.6355    1.3280 C   0  0  0  0  0  0  0  0  0  0  0  0
   -0.2900   -3.8784    0.0093 C   0  0  0  0  0  0  0  0  0  0  0  0
   -1.2832   -3.9816   -0.9670 C   0  0  0  0  0  0  0  0  0  0  0  0
   -1.8699   -5.2023   -1.2276 C   0  0  0  0  0  0  0  0  0  0  0  0
   -1.4783   -6.3290   -0.5194 C   0  0  0  0  0  0  0  0  0  0  0  0
   -0.4971   -6.2230    0.4530 C   0  0  0  0  0  0  0  0  0  0  0  0
    0.1019   -5.0066    0.7259 C   0  0  0  0  0  0  0  0  0  0  0  0
   -4.4062   -0.5553   -4.3850 H   0  0  0  0  0  0  0  0  0  0  0  0
   -6.0633   -2.1289   -5.3356 H   0  0  0  0  0  0  0  0  0  0  0  0
   -7.5829   -1.3748   -7.1297 H   0  0  0  0  0  0  0  0  0  0  0  0
   -7.4293    0.9344   -7.9820 H   0  0  0  0  0  0  0  0  0  0  0  0
   -5.7898    2.4949   -7.0521 H   0  0  0  0  0  0  0  0  0  0  0  0
   -5.2581    5.6697   -4.1052 H   0  0  0  0  0  0  0  0  0  0  0  0
   -5.0819    8.0910   -3.8469 H   0  0  0  0  0  0  0  0  0  0  0  0
   -2.8795    9.2015   -3.8818 H   0  0  0  0  0  0  0  0  0  0  0  0
   -0.8282    7.8510   -4.1737 H   0  0  0  0  0  0  0  0  0  0  0  0
   -0.9955    5.4087   -4.4508 H   0  0  0  0  0  0  0  0  0  0  0  0
    6.5109    9.4513    3.6325 H   0  0  0  0  0  0  0  0  0  0  0  0
    7.6848    9.1576    4.8943 H   0  0  0  0  0  0  0  0  0  0  0  0
    6.0339    8.6141    5.0973 H   0  0  0  0  0  0  0  0  0  0  0  0
    7.0416    5.5900    5.6056 H   0  0  0  0  0  0  0  0  0  0  0  0
    8.6793    6.1857    5.4667 H   0  0  0  0  0  0  0  0  0  0  0  0
    8.1505    4.8628    4.4523 H   0  0  0  0  0  0  0  0  0  0  0  0
    8.4584    8.0732    1.5786 H   0  0  0  0  0  0  0  0  0  0  0  0
    8.8788    6.3772    1.7270 H   0  0  0  0  0  0  0  0  0  0  0  0
    9.6261    7.5631    2.7743 H   0  0  0  0  0  0  0  0  0  0  0  0
    5.9416    5.2872    2.4126 H   0  0  0  0  0  0  0  0  0  0  0  0
    4.9093    6.2969    3.3953 H   0  0  0  0  0  0  0  0  0  0  0  0
    5.0703    8.1211    1.7070 H   0  0  0  0  0  0  0  0  0  0  0  0
    6.1278    7.0913    0.7175 H   0  0  0  0  0  0  0  0  0  0  0  0
    4.6397    6.9332   -1.0177 H   0  0  0  0  0  0  0  0  0  0  0  0
    3.2568    7.8067   -0.2989 H   0  0  0  0  0  0  0  0  0  0  0  0
    1.0991    7.9933   -0.6237 H   0  0  0  0  0  0  0  0  0  0  0  0
   -1.3281    7.6956   -0.9059 H   0  0  0  0  0  0  0  0  0  0  0  0
   -3.2506    6.2895   -1.1654 H   0  0  0  0  0  0  0  0  0  0  0  0
   -4.2923    4.0731   -1.3351 H   0  0  0  0  0  0  0  0  0  0  0  0
   -1.5671   -3.0978   -1.5163 H   0  0  0  0  0  0  0  0  0  0  0  0
   -2.6280   -5.2794   -1.9914 H   0  0  0  0  0  0  0  0  0  0  0  0
   -1.9331   -7.2847   -0.7280 H   0  0  0  0  0  0  0  0  0  0  0  0
   -0.1926   -7.0969    1.0079 H   0  0  0  0  0  0  0  0  0  0  0  0
    0.8632   -4.9380    1.4829 H   0  0  0  0  0  0  0  0  0  0  0  0
    4.2758   -2.6179    0.7274 H   0  0  0  0  0  0  0  0  0  0  0  0
    6.5068   -1.7753    1.2158 H   0  0  0  0  0  0  0  0  0  0  0  0
    6.8674    0.6042    1.7570 H   0  0  0  0  0  0  0  0  0  0  0  0
    4.9273    2.1469    1.8390 H   0  0  0  0  0  0  0  0  0  0  0  0
    2.6782    1.3030    1.3423 H   0  0  0  0  0  0  0  0  0  0  0  0
    5.7144    2.2469   -1.1845 H   0  0  0  0  0  0  0  0  0  0  0  0
    5.3997    4.6635   -0.7786 H   0  0  0  0  0  0  0  0  0  0  0  0
   -4.0843    1.6160   -1.1037 H   0  0  0  0  0  0  0  0  0  0  0  0
   -2.7120   -0.3690   -0.5782 H   0  0  0  0  0  0  0  0  0  0  0  0
    0.7106    2.1224   -0.1509 H   0  0  0  0  0  0  0  0  0  0  0  0
    0.1316    3.2697   -3.1380 H   0  0  0  0  0  0  0  0  0  0  0  0
   -1.3556   -0.5845   -4.1793 H   0  0  0  0  0  0  0  0  0  0  0  0
    0.7665   -1.6017   -3.4224 H   0  0  0  0  0  0  0  0  0  0  0  0
    3.0397   -1.3616   -2.5304 H   0  0  0  0  0  0  0  0  0  0  0  0
    4.8628    0.1042   -1.7740 H   0  0  0  0  0  0  0  0  0  0  0  0
   -1.5620    0.9477    6.1417 C   0  0  0  0  0  0  0  0  0  0  0  0
   -1.5345   -0.3858    6.4487 C   0  0  0  0  0  0  0  0  0  0  0  0
   -0.3000   -1.0546    6.5092 C   0  0  0  0  0  0  0  0  0  0  0  0
    0.8629   -0.3848    6.1773 C   0  0  0  0  0  0  0  0  0  0  0  0
    0.8397    0.9413    5.7380 C   0  0  0  0  0  0  0  0  0  0  0  0
   -0.3860    1.6481    5.8118 C   0  0  0  0  0  0  0  0  0  0  0  0
    2.0295    1.6057    5.2838 C   0  0  0  0  0  0  0  0  0  0  0  0
    2.0191    3.0204    5.2642 C   0  0  0  0  0  0  0  0  0  0  0  0
    0.7859    3.7118    5.4162 C   0  0  0  0  0  0  0  0  0  0  0  0
   -0.3840    3.0519    5.6053 C   0  0  0  0  0  0  0  0  0  0  0  0
    3.2308    0.9466    4.9101 C   0  0  0  0  0  0  0  0  0  0  0  0
    4.4189    1.7136    4.8976 C   0  0  0  0  0  0  0  0  0  0  0  0
    4.4225    3.1077    4.9962 C   0  0  0  0  0  0  0  0  0  0  0  0
    3.2188    3.7462    5.1051 C   0  0  0  0  0  0  0  0  0  0  0  0
    3.6353   -0.4086    4.6059 C   0  0  0  0  0  0  0  0  0  0  0  0
    5.0514   -0.3993    4.6230 C   0  0  0  0  0  0  0  0  0  0  0  0
    2.9875   -1.6240    4.2605 C   0  0  0  0  0  0  0  0  0  0  0  0
    3.7553   -2.8120    4.2862 C   0  0  0  0  0  0  0  0  0  0  0  0
    5.1554   -2.7614    4.4473 C   0  0  0  0  0  0  0  0  0  0  0  0
    5.8129   -1.5680    4.5499 C   0  0  0  0  0  0  0  0  0  0  0  0
    1.6140   -1.7339    3.8531 C   0  0  0  0  0  0  0  0  0  0  0  0
    0.9836   -3.0025    3.8122 C   0  0  0  0  0  0  0  0  0  0  0  0
    1.7640   -4.1691    4.0152 C   0  0  0  0  0  0  0  0  0  0  0  0
    3.1074   -4.0706    4.1685 C   0  0  0  0  0  0  0  0  0  0  0  0
   -0.4719   -0.7111    3.1489 C   0  0  0  0  0  0  0  0  0  0  0  0
   -1.1196   -1.9560    3.2227 C   0  0  0  0  0  0  0  0  0  0  0  0
   -0.3919   -3.0769    3.5174 C   0  0  0  0  0  0  0  0  0  0  0  0
    0.8759   -0.6197    3.4411 C   0  0  0  0  0  0  0  0  0  0  0  0
   -1.2108    0.5004    2.8201 C   0  0  0  0  0  0  0  0  0  0  0  0
   -0.2176   -2.4624    6.8653 C   0  0  0  0  0  0  0  0  0  0  0  0
   -0.5280    1.6288    2.7157 N   0  0  0  0  0  0  0  0  0  0  0  0
   -1.1882    2.7456    2.4351 N   0  0  0  0  0  0  0  0  0  0  0  0
   -2.5688    2.7721    2.2159 C   0  0  0  0  0  0  0  0  0  0  0  0
   -3.1882    1.5384    2.4256 N   0  0  0  0  0  0  0  0  0  0  0  0
   -2.5252    0.4235    2.7094 N   0  0  0  0  0  0  0  0  0  0  0  0
   -3.1731    3.7631    1.8952 O   0  0  0  0  0  0  0  0  0  0  0  0
   -1.3323   -3.1395    7.0945 N   0  0  0  0  0  0  0  0  0  0  0  0
   -1.2240   -4.4253    7.3787 N   0  0  0  0  0  0  0  0  0  0  0  0
   -0.0114   -5.1261    7.3822 C   0  0  0  0  0  0  0  0  0  0  0  0
    1.0994   -4.2987    7.1700 N   0  0  0  0  0  0  0  0  0  0  0  0
    0.9888   -3.0067    6.9229 N   0  0  0  0  0  0  0  0  0  0  0  0
    0.0535   -6.3154    7.5426 O   0  0  0  0  0  0  0  0  0  0  0  0
    5.5027    0.8891    4.7364 N   0  0  0  0  0  0  0  0  0  0  0  0
   10.3239    2.9388    8.4519 Si  0  0  0  0  0  0  0  0  0  0  0  0
    8.6186    2.1878    7.9645 C   0  0  0  0  0  0  0  0  0  0  0  0
    8.4523    1.9943    6.4730 C   0  0  0  0  0  0  0  0  0  0  0  0
    7.1475    1.4916    6.2236 O   0  0  0  0  0  0  0  0  0  0  0  0
   10.3481    3.0580   10.3526 C   0  0  0  0  0  0  0  0  0  0  0  0
   10.4884    4.6708    7.6684 C   0  0  0  0  0  0  0  0  0  0  0  0
   11.7196    1.8014    7.8241 C   0  0  0  0  0  0  0  0  0  0  0  0
    6.8626    1.3100    4.8674 C   0  0  0  0  0  0  0  0  0  0  0  0
   -0.3896    3.9062    2.3797 C   0  0  0  0  0  0  0  0  0  0  0  0
    0.9891    3.7270    2.2409 C   0  0  0  0  0  0  0  0  0  0  0  0
    1.8344    4.8133    2.2236 C   0  0  0  0  0  0  0  0  0  0  0  0
    1.3188    6.0946    2.3494 C   0  0  0  0  0  0  0  0  0  0  0  0
   -0.0465    6.2761    2.4888 C   0  0  0  0  0  0  0  0  0  0  0  0
   -0.9073    5.1939    2.5052 C   0  0  0  0  0  0  0  0  0  0  0  0
   -4.5945    1.4080    2.4345 C   0  0  0  0  0  0  0  0  0  0  0  0
   -5.4286    2.1953    1.6447 C   0  0  0  0  0  0  0  0  0  0  0  0
   -6.7970    2.0042    1.7076 C   0  0  0  0  0  0  0  0  0  0  0  0
   -7.3410    1.0412    2.5422 C   0  0  0  0  0  0  0  0  0  0  0  0
   -6.5063    0.2533    3.3213 C   0  0  0  0  0  0  0  0  0  0  0  0
   -5.1393    0.4307    3.2694 C   0  0  0  0  0  0  0  0  0  0  0  0
    2.4263   -4.7776    7.2232 C   0  0  0  0  0  0  0  0  0  0  0  0
    2.7599   -6.1093    6.9805 C   0  0  0  0  0  0  0  0  0  0  0  0
    4.0882   -6.4921    7.0231 C   0  0  0  0  0  0  0  0  0  0  0  0
    5.0846   -5.5690    7.2975 C   0  0  0  0  0  0  0  0  0  0  0  0
    4.7499   -4.2429    7.5328 C   0  0  0  0  0  0  0  0  0  0  0  0
    3.4307   -3.8452    7.4976 C   0  0  0  0  0  0  0  0  0  0  0  0
   -2.4427   -5.0928    7.6311 C   0  0  0  0  0  0  0  0  0  0  0  0
   -3.5802   -4.6342    6.9658 C   0  0  0  0  0  0  0  0  0  0  0  0
   -4.7983   -5.2379    7.1988 C   0  0  0  0  0  0  0  0  0  0  0  0
   -4.8929   -6.2920    8.0964 C   0  0  0  0  0  0  0  0  0  0  0  0
   -3.7624   -6.7360    8.7643 C   0  0  0  0  0  0  0  0  0  0  0  0
   -2.5333   -6.1438    8.5404 C   0  0  0  0  0  0  0  0  0  0  0  0
   -4.4757   -0.1643    3.8772 H   0  0  0  0  0  0  0  0  0  0  0  0
   -6.9245   -0.4942    3.9772 H   0  0  0  0  0  0  0  0  0  0  0  0
   -8.4102    0.9065    2.5883 H   0  0  0  0  0  0  0  0  0  0  0  0
   -7.4437    2.6149    1.0970 H   0  0  0  0  0  0  0  0  0  0  0  0
   -5.0172    2.9470    0.9943 H   0  0  0  0  0  0  0  0  0  0  0  0
   -1.9633    5.3596    2.6253 H   0  0  0  0  0  0  0  0  0  0  0  0
   -0.4540    7.2695    2.5953 H   0  0  0  0  0  0  0  0  0  0  0  0
    1.9870    6.9407    2.3389 H   0  0  0  0  0  0  0  0  0  0  0  0
    2.8966    4.6750    2.1030 H   0  0  0  0  0  0  0  0  0  0  0  0
    1.3734    2.7249    2.1592 H   0  0  0  0  0  0  0  0  0  0  0  0
   10.5600    4.6192    6.5857 H   0  0  0  0  0  0  0  0  0  0  0  0
   11.3813    5.1730    8.0271 H   0  0  0  0  0  0  0  0  0  0  0  0
    9.6397    5.3019    7.9157 H   0  0  0  0  0  0  0  0  0  0  0  0
    9.5389    3.6783   10.7248 H   0  0  0  0  0  0  0  0  0  0  0  0
   11.2800    3.4941   10.6963 H   0  0  0  0  0  0  0  0  0  0  0  0
   10.2537    2.0809   10.8155 H   0  0  0  0  0  0  0  0  0  0  0  0
   11.7684    1.7811    6.7391 H   0  0  0  0  0  0  0  0  0  0  0  0
   11.5878    0.7796    8.1679 H   0  0  0  0  0  0  0  0  0  0  0  0
   12.6859    2.1410    8.1838 H   0  0  0  0  0  0  0  0  0  0  0  0
    8.4788    1.2248    8.4533 H   0  0  0  0  0  0  0  0  0  0  0  0
    7.8135    2.8335    8.3133 H   0  0  0  0  0  0  0  0  0  0  0  0
    8.5800    2.9480    5.9420 H   0  0  0  0  0  0  0  0  0  0  0  0
    9.1971    1.2852    6.0847 H   0  0  0  0  0  0  0  0  0  0  0  0
    7.5251    0.5490    4.4233 H   0  0  0  0  0  0  0  0  0  0  0  0
    7.0076    2.2545    4.3115 H   0  0  0  0  0  0  0  0  0  0  0  0
    5.3458    3.6634    4.9746 H   0  0  0  0  0  0  0  0  0  0  0  0
    3.1718    4.8242    5.1219 H   0  0  0  0  0  0  0  0  0  0  0  0
    0.7999    4.7900    5.3511 H   0  0  0  0  0  0  0  0  0  0  0  0
   -1.3201    3.5887    5.6663 H   0  0  0  0  0  0  0  0  0  0  0  0
   -3.4830   -3.8180    6.2669 H   0  0  0  0  0  0  0  0  0  0  0  0
   -5.6765   -4.8906    6.6770 H   0  0  0  0  0  0  0  0  0  0  0  0
   -5.8459   -6.7644    8.2757 H   0  0  0  0  0  0  0  0  0  0  0  0
   -3.8362   -7.5462    9.4722 H   0  0  0  0  0  0  0  0  0  0  0  0
   -1.6650   -6.4876    9.0766 H   0  0  0  0  0  0  0  0  0  0  0  0
    2.0022   -6.8399    6.7574 H   0  0  0  0  0  0  0  0  0  0  0  0
    4.3435   -7.5235    6.8365 H   0  0  0  0  0  0  0  0  0  0  0  0
    6.1165   -5.8820    7.3334 H   0  0  0  0  0  0  0  0  0  0  0  0
    5.5179   -3.5181    7.7528 H   0  0  0  0  0  0  0  0  0  0  0  0
    3.1581   -2.8207    7.6923 H   0  0  0  0  0  0  0  0  0  0  0  0
    5.7050   -3.6898    4.4585 H   0  0  0  0  0  0  0  0  0  0  0  0
    6.8884   -1.5341    4.6147 H   0  0  0  0  0  0  0  0  0  0  0  0
   -2.4967    1.4909    6.1656 H   0  0  0  0  0  0  0  0  0  0  0  0
   -2.4365   -0.9246    6.6902 H   0  0  0  0  0  0  0  0  0  0  0  0
    1.8042   -0.8941    6.2844 H   0  0  0  0  0  0  0  0  0  0  0  0
    1.3650    0.3313    3.3271 H   0  0  0  0  0  0  0  0  0  0  0  0
   -2.1743   -2.0115    3.0075 H   0  0  0  0  0  0  0  0  0  0  0  0
   -0.8686   -4.0477    3.5155 H   0  0  0  0  0  0  0  0  0  0  0  0
    1.2760   -5.1335    3.9921 H   0  0  0  0  0  0  0  0  0  0  0  0
    3.7160   -4.9600    4.2359 H   0  0  0  0  0  0  0  0  0  0  0  0
  1  2  2  0  0  0  0
  1117  1  0  0  0  0
  2  3  1  0  0  0  0
  2118  1  0  0  0  0
  3  4  2  0  0  0  0
  3 30  1  0  0  0  0
  4  5  1  0  0  0  0
  4119  1  0  0  0  0
  5  6  2  0  0  0  0
  5  7  1  0  0  0  0
  6  1  1  0  0  0  0
  7  8  2  0  0  0  0
  7 11  1  0  0  0  0
  8  9  1  0  0  0  0
  9 10  2  0  0  0  0
  9103  1  0  0  0  0
 10  6  1  0  0  0  0
 10104  1  0  0  0  0
 11 12  2  0  0  0  0
 11 15  1  0  0  0  0
 12 43  1  0  0  0  0
 12 13  1  0  0  0  0
 13 14  2  0  0  0  0
 13101  1  0  0  0  0
 14  8  1  0  0  0  0
 14102  1  0  0  0  0
 15 16  1  0  0  0  0
 15 17  2  0  0  0  0
 16 43  1  0  0  0  0
 17 18  1  0  0  0  0
 17 21  1  0  0  0  0
 18 19  2  0  0  0  0
 19 20  1  0  0  0  0
 19115  1  0  0  0  0
 20 16  2  0  0  0  0
 20116  1  0  0  0  0
 21 22  2  0  0  0  0
 21 28  1  0  0  0  0
 22 23  1  0  0  0  0
 23 24  2  0  0  0  0
 23123  1  0  0  0  0
 24 18  1  0  0  0  0
 24124  1  0  0  0  0
 25 26  1  0  0  0  0
 25 29  1  0  0  0  0
 26 27  2  0  0  0  0
 26121  1  0  0  0  0
 27 22  1  0  0  0  0
 27122  1  0  0  0  0
 28 25  2  0  0  0  0
 28120  1  0  0  0  0
 29 31  2  0  0  0  0
 30 37  1  0  0  0  0
 31 32  1  0  0  0  0
 32 52  1  0  0  0  0
 32 33  1  0  0  0  0
 33 34  1  0  0  0  0
 33 36  2  0  0  0  0
 34 58  1  0  0  0  0
 34 35  1  0  0  0  0
 35 29  1  0  0  0  0
 37 38  1  0  0  0  0
 38 70  1  0  0  0  0
 38 39  1  0  0  0  0
 39 40  1  0  0  0  0
 39 42  2  0  0  0  0
 40 64  1  0  0  0  0
 40 41  1  0  0  0  0
 41 30  2  0  0  0  0
 43 51  1  0  0  0  0
 44 45  1  0  0  0  0
 44 48  1  0  0  0  0
 44 49  1  0  0  0  0
 44 50  1  0  0  0  0
 45 46  1  0  0  0  0
 45 95  1  0  0  0  0
 45 96  1  0  0  0  0
 46 47  1  0  0  0  0
 46 97  1  0  0  0  0
 46 98  1  0  0  0  0
 47 51  1  0  0  0  0
 48 89  1  0  0  0  0
 48 90  1  0  0  0  0
 48 91  1  0  0  0  0
 49 86  1  0  0  0  0
 49 87  1  0  0  0  0
 49 88  1  0  0  0  0
 50 92  1  0  0  0  0
 50 93  1  0  0  0  0
 50 94  1  0  0  0  0
 51 99  1  0  0  0  0
 51100  1  0  0  0  0
 52 53  2  0  0  0  0
 52 57  1  0  0  0  0
 53 54  1  0  0  0  0
 53 85  1  0  0  0  0
 54 55  2  0  0  0  0
 54 84  1  0  0  0  0
 55 56  1  0  0  0  0
 55 83  1  0  0  0  0
 56 57  2  0  0  0  0
 56 82  1  0  0  0  0
 57 81  1  0  0  0  0
 58 59  2  0  0  0  0
 58 63  1  0  0  0  0
 59 60  1  0  0  0  0
 59 80  1  0  0  0  0
 60 61  2  0  0  0  0
 60 79  1  0  0  0  0
 61 62  1  0  0  0  0
 61 78  1  0  0  0  0
 62 63  2  0  0  0  0
 62 77  1  0  0  0  0
 63 76  1  0  0  0  0
 64 65  2  0  0  0  0
 64 69  1  0  0  0  0
 65 66  1  0  0  0  0
 65110  1  0  0  0  0
 66 67  2  0  0  0  0
 66111  1  0  0  0  0
 67 68  1  0  0  0  0
 67112  1  0  0  0  0
 68 69  2  0  0  0  0
 68113  1  0  0  0  0
 69114  1  0  0  0  0
 70 71  2  0  0  0  0
 70 75  1  0  0  0  0
 71 72  1  0  0  0  0
 71105  1  0  0  0  0
 72 73  2  0  0  0  0
 72106  1  0  0  0  0
 73 74  1  0  0  0  0
 73107  1  0  0  0  0
 74 75  2  0  0  0  0
 74108  1  0  0  0  0
 75109  1  0  0  0  0
125126  2  0  0  0  0
125241  1  0  0  0  0
126127  1  0  0  0  0
126242  1  0  0  0  0
127128  2  0  0  0  0
127154  1  0  0  0  0
128129  1  0  0  0  0
128243  1  0  0  0  0
129130  2  0  0  0  0
129131  1  0  0  0  0
130125  1  0  0  0  0
131132  2  0  0  0  0
131135  1  0  0  0  0
132133  1  0  0  0  0
133134  2  0  0  0  0
133227  1  0  0  0  0
134130  1  0  0  0  0
134228  1  0  0  0  0
135136  2  0  0  0  0
135139  1  0  0  0  0
136167  1  0  0  0  0
136137  1  0  0  0  0
137138  2  0  0  0  0
137225  1  0  0  0  0
138132  1  0  0  0  0
138226  1  0  0  0  0
139140  1  0  0  0  0
139141  2  0  0  0  0
140167  1  0  0  0  0
141142  1  0  0  0  0
141145  1  0  0  0  0
142143  2  0  0  0  0
143144  1  0  0  0  0
143239  1  0  0  0  0
144140  2  0  0  0  0
144240  1  0  0  0  0
145146  2  0  0  0  0
145152  1  0  0  0  0
146147  1  0  0  0  0
147148  2  0  0  0  0
147247  1  0  0  0  0
148142  1  0  0  0  0
148248  1  0  0  0  0
149150  1  0  0  0  0
149153  1  0  0  0  0
150151  2  0  0  0  0
150245  1  0  0  0  0
151146  1  0  0  0  0
151246  1  0  0  0  0
152149  2  0  0  0  0
152244  1  0  0  0  0
153155  2  0  0  0  0
154161  1  0  0  0  0
155156  1  0  0  0  0
156176  1  0  0  0  0
156157  1  0  0  0  0
157158  1  0  0  0  0
157160  2  0  0  0  0
158182  1  0  0  0  0
158159  1  0  0  0  0
159153  1  0  0  0  0
161162  1  0  0  0  0
162194  1  0  0  0  0
162163  1  0  0  0  0
163164  1  0  0  0  0
163166  2  0  0  0  0
164188  1  0  0  0  0
164165  1  0  0  0  0
165154  2  0  0  0  0
167175  1  0  0  0  0
168169  1  0  0  0  0
168172  1  0  0  0  0
168173  1  0  0  0  0
168174  1  0  0  0  0
169170  1  0  0  0  0
169219  1  0  0  0  0
169220  1  0  0  0  0
170171  1  0  0  0  0
170221  1  0  0  0  0
170222  1  0  0  0  0
171175  1  0  0  0  0
172213  1  0  0  0  0
172214  1  0  0  0  0
172215  1  0  0  0  0
173210  1  0  0  0  0
173211  1  0  0  0  0
173212  1  0  0  0  0
174216  1  0  0  0  0
174217  1  0  0  0  0
174218  1  0  0  0  0
175223  1  0  0  0  0
175224  1  0  0  0  0
176177  2  0  0  0  0
176181  1  0  0  0  0
177178  1  0  0  0  0
177209  1  0  0  0  0
178179  2  0  0  0  0
178208  1  0  0  0  0
179180  1  0  0  0  0
179207  1  0  0  0  0
180181  2  0  0  0  0
180206  1  0  0  0  0
181205  1  0  0  0  0
182183  2  0  0  0  0
182187  1  0  0  0  0
183184  1  0  0  0  0
183204  1  0  0  0  0
184185  2  0  0  0  0
184203  1  0  0  0  0
185186  1  0  0  0  0
185202  1  0  0  0  0
186187  2  0  0  0  0
186201  1  0  0  0  0
187200  1  0  0  0  0
188189  2  0  0  0  0
188193  1  0  0  0  0
189190  1  0  0  0  0
189234  1  0  0  0  0
190191  2  0  0  0  0
190235  1  0  0  0  0
191192  1  0  0  0  0
191236  1  0  0  0  0
192193  2  0  0  0  0
192237  1  0  0  0  0
193238  1  0  0  0  0
194195  2  0  0  0  0
194199  1  0  0  0  0
195196  1  0  0  0  0
195229  1  0  0  0  0
196197  2  0  0  0  0
196230  1  0  0  0  0
197198  1  0  0  0  0
197231  1  0  0  0  0
198199  2  0  0  0  0
198232  1  0  0  0  0
199233  1  0  0  0  0
M  CHG  1   1   2
M  END
