
 OpenBabel11142414153D

124136  0  0  0  0  0  0  0  0999 V2000
   -2.1778    0.1874    0.3403 C   0  0  0  0  0  0  0  0  0  0  0  0
   -1.5797   -1.0673    0.1651 C   0  0  0  0  0  0  0  0  0  0  0  0
   -0.2017   -1.1717   -0.0718 C   0  0  0  0  0  0  0  0  0  0  0  0
    0.5389    0.0177   -0.2014 C   0  0  0  0  0  0  0  0  0  0  0  0
   -0.0487    1.3086   -0.0911 C   0  0  0  0  0  0  0  0  0  0  0  0
   -1.4169    1.3694    0.2584 C   0  0  0  0  0  0  0  0  0  0  0  0
    0.7098    2.5297   -0.2116 C   0  0  0  0  0  0  0  0  0  0  0  0
    0.1447    3.7291    0.2873 C   0  0  0  0  0  0  0  0  0  0  0  0
   -1.2142    3.7613    0.6324 C   0  0  0  0  0  0  0  0  0  0  0  0
   -1.9993    2.6061    0.5651 C   0  0  0  0  0  0  0  0  0  0  0  0
    2.0299    2.6252   -0.7413 C   0  0  0  0  0  0  0  0  0  0  0  0
    2.8575    3.6831   -0.4271 C   0  0  0  0  0  0  0  0  0  0  0  0
    2.3406    4.8256    0.1907 C   0  0  0  0  0  0  0  0  0  0  0  0
    0.9597    4.8740    0.4624 C   0  0  0  0  0  0  0  0  0  0  0  0
    2.7731    1.7981   -1.5797 C   0  0  0  0  0  0  0  0  0  0  0  0
    4.0865    2.2097   -1.4336 C   0  0  0  0  0  0  0  0  0  0  0  0
    2.4005    0.7355   -2.4636 C   0  0  0  0  0  0  0  0  0  0  0  0
    3.4446   -0.1257   -2.8810 C   0  0  0  0  0  0  0  0  0  0  0  0
    4.7949    0.2235   -2.6154 C   0  0  0  0  0  0  0  0  0  0  0  0
    5.1246    1.4332   -1.9592 C   0  0  0  0  0  0  0  0  0  0  0  0
    1.0714    0.5125   -2.9901 C   0  0  0  0  0  0  0  0  0  0  0  0
    0.7773   -0.6980   -3.6599 C   0  0  0  0  0  0  0  0  0  0  0  0
    1.8035   -1.6190   -3.9036 C   0  0  0  0  0  0  0  0  0  0  0  0
    3.1281   -1.3093   -3.5721 C   0  0  0  0  0  0  0  0  0  0  0  0
   -1.2539    1.2681   -3.4531 C   0  0  0  0  0  0  0  0  0  0  0  0
   -1.5426    0.0066   -3.9891 C   0  0  0  0  0  0  0  0  0  0  0  0
   -0.5331   -0.9573   -4.1120 C   0  0  0  0  0  0  0  0  0  0  0  0
    0.0463    1.4985   -2.9597 C   0  0  0  0  0  0  0  0  0  0  0  0
   -2.2791    2.3639   -3.4477 C   0  0  0  0  0  0  0  0  0  0  0  0
    0.4799   -2.5079   -0.1421 C   0  0  0  0  0  0  0  0  0  0  0  0
   -1.8971    3.6474   -3.2365 N   0  0  0  0  0  0  0  0  0  0  0  0
   -2.7481    4.6743   -3.3020 N   0  0  0  0  0  0  0  0  0  0  0  0
   -4.0871    4.4053   -3.5530 C   0  0  0  0  0  0  0  0  0  0  0  0
   -4.5023    3.0969   -3.7786 N   0  0  0  0  0  0  0  0  0  0  0  0
   -3.5861    2.1211   -3.7285 N   0  0  0  0  0  0  0  0  0  0  0  0
   -4.8989    5.3049   -3.5240 O   0  0  0  0  0  0  0  0  0  0  0  0
   -0.2230   -3.6597   -0.0257 N   0  0  0  0  0  0  0  0  0  0  0  0
    0.3589   -4.8662   -0.0356 N   0  0  0  0  0  0  0  0  0  0  0  0
    1.7431   -4.9247   -0.1719 C   0  0  0  0  0  0  0  0  0  0  0  0
    2.4865   -3.7543   -0.2824 N   0  0  0  0  0  0  0  0  0  0  0  0
    1.8269   -2.5899   -0.2642 N   0  0  0  0  0  0  0  0  0  0  0  0
    2.3018   -5.9978   -0.1968 O   0  0  0  0  0  0  0  0  0  0  0  0
    4.1485    3.4109   -0.7746 N   0  0  0  0  0  0  0  0  0  0  0  0
    9.0882    4.8377    3.4592 Si  0  0  0  0  0  0  0  0  0  0  0  0
    7.5739    4.1235    2.4499 C   0  0  0  0  0  0  0  0  0  0  0  0
    6.8469    4.8083    1.2663 C   0  0  0  0  0  0  0  0  0  0  0  0
    5.9860    3.8178    0.6876 O   0  0  0  0  0  0  0  0  0  0  0  0
   10.1708    5.2301    5.0373 C   0  0  0  0  0  0  0  0  0  0  0  0
    8.8298    6.7266    3.4132 C   0  0  0  0  0  0  0  0  0  0  0  0
    9.5193    3.0391    3.9829 C   0  0  0  0  0  0  0  0  0  0  0  0
    5.3349    4.2605   -0.4944 C   0  0  0  0  0  0  0  0  0  0  0  0
   -2.1970    6.0213   -3.1181 C   0  0  0  0  0  0  0  0  0  0  0  0
   -0.8972    6.1729   -2.5809 C   0  0  0  0  0  0  0  0  0  0  0  0
   -0.3269    7.4380   -2.4040 C   0  0  0  0  0  0  0  0  0  0  0  0
   -1.0306    8.5842   -2.7675 C   0  0  0  0  0  0  0  0  0  0  0  0
   -2.3052    8.4692   -3.3122 C   0  0  0  0  0  0  0  0  0  0  0  0
   -2.8860    7.2108   -3.4891 C   0  0  0  0  0  0  0  0  0  0  0  0
   -5.8951    2.7181   -4.0530 C   0  0  0  0  0  0  0  0  0  0  0  0
   -6.9049    3.6443   -4.4451 C   0  0  0  0  0  0  0  0  0  0  0  0
   -8.2186    3.2299   -4.6799 C   0  0  0  0  0  0  0  0  0  0  0  0
   -8.5690    1.8921   -4.5369 C   0  0  0  0  0  0  0  0  0  0  0  0
   -7.6023    0.9597   -4.1673 C   0  0  0  0  0  0  0  0  0  0  0  0
   -6.2822    1.3631   -3.9332 C   0  0  0  0  0  0  0  0  0  0  0  0
    3.9536   -3.6910   -0.4007 C   0  0  0  0  0  0  0  0  0  0  0  0
    4.8092   -4.8320   -0.4568 C   0  0  0  0  0  0  0  0  0  0  0  0
    6.1969   -4.6965   -0.5626 C   0  0  0  0  0  0  0  0  0  0  0  0
    6.7800   -3.4363   -0.6160 C   0  0  0  0  0  0  0  0  0  0  0  0
    5.9766   -2.3024   -0.5608 C   0  0  0  0  0  0  0  0  0  0  0  0
    4.5873   -2.4249   -0.4539 C   0  0  0  0  0  0  0  0  0  0  0  0
   -0.5227   -6.0363    0.1104 C   0  0  0  0  0  0  0  0  0  0  0  0
   -1.9266   -5.8449    0.1298 C   0  0  0  0  0  0  0  0  0  0  0  0
   -2.8109   -6.9198    0.2680 C   0  0  0  0  0  0  0  0  0  0  0  0
   -2.3259   -8.2179    0.3947 C   0  0  0  0  0  0  0  0  0  0  0  0
   -0.9551   -8.4454    0.3857 C   0  0  0  0  0  0  0  0  0  0  0  0
   -0.0611   -7.3799    0.2472 C   0  0  0  0  0  0  0  0  0  0  0  0
   -5.5670    0.6067   -3.6412 H   0  0  0  0  0  0  0  0  0  0  0  0
   -7.8781   -0.0808   -4.0591 H   0  0  0  0  0  0  0  0  0  0  0  0
   -9.5899    1.5795   -4.7175 H   0  0  0  0  0  0  0  0  0  0  0  0
   -8.9686    3.9538   -4.9769 H   0  0  0  0  0  0  0  0  0  0  0  0
   -6.7323    4.6931   -4.6023 H   0  0  0  0  0  0  0  0  0  0  0  0
   -3.8606    7.2233   -3.9424 H   0  0  0  0  0  0  0  0  0  0  0  0
   -2.8473    9.3600   -3.6071 H   0  0  0  0  0  0  0  0  0  0  0  0
   -0.5872    9.5629   -2.6350 H   0  0  0  0  0  0  0  0  0  0  0  0
    0.6667    7.5295   -1.9858 H   0  0  0  0  0  0  0  0  0  0  0  0
   -0.3147    5.3106   -2.2876 H   0  0  0  0  0  0  0  0  0  0  0  0
    8.3752    7.0652    2.4663 H   0  0  0  0  0  0  0  0  0  0  0  0
    9.7873    7.2814    3.5441 H   0  0  0  0  0  0  0  0  0  0  0  0
    8.1603    7.0292    4.2518 H   0  0  0  0  0  0  0  0  0  0  0  0
    9.7216    5.9834    5.7154 H   0  0  0  0  0  0  0  0  0  0  0  0
   11.1348    5.6444    4.6629 H   0  0  0  0  0  0  0  0  0  0  0  0
   10.4809    4.4080    5.7208 H   0  0  0  0  0  0  0  0  0  0  0  0
    9.1872    2.2399    3.2972 H   0  0  0  0  0  0  0  0  0  0  0  0
    8.9986    2.8248    4.9461 H   0  0  0  0  0  0  0  0  0  0  0  0
   10.6102    2.8807    4.0976 H   0  0  0  0  0  0  0  0  0  0  0  0
    8.0056    3.2476    1.9273 H   0  0  0  0  0  0  0  0  0  0  0  0
    6.8123    3.7703    3.1715 H   0  0  0  0  0  0  0  0  0  0  0  0
    6.2580    5.6708    1.6494 H   0  0  0  0  0  0  0  0  0  0  0  0
    7.5979    5.1580    0.5199 H   0  0  0  0  0  0  0  0  0  0  0  0
    6.0241    4.2314   -1.3671 H   0  0  0  0  0  0  0  0  0  0  0  0
    5.0053    5.3149   -0.3833 H   0  0  0  0  0  0  0  0  0  0  0  0
    2.9604    5.6811    0.4136 H   0  0  0  0  0  0  0  0  0  0  0  0
    0.5408    5.7807    0.8800 H   0  0  0  0  0  0  0  0  0  0  0  0
   -1.6713    4.6841    0.9668 H   0  0  0  0  0  0  0  0  0  0  0  0
   -3.0453    2.6655    0.8408 H   0  0  0  0  0  0  0  0  0  0  0  0
   -2.3561   -4.8574    0.0341 H   0  0  0  0  0  0  0  0  0  0  0  0
   -3.8784   -6.7444    0.2770 H   0  0  0  0  0  0  0  0  0  0  0  0
   -3.0110   -9.0492    0.5025 H   0  0  0  0  0  0  0  0  0  0  0  0
   -0.5783   -9.4563    0.4890 H   0  0  0  0  0  0  0  0  0  0  0  0
    0.9693   -7.6751    0.2647 H   0  0  0  0  0  0  0  0  0  0  0  0
    4.4764   -5.8501   -0.4239 H   0  0  0  0  0  0  0  0  0  0  0  0
    6.8244   -5.5791   -0.6025 H   0  0  0  0  0  0  0  0  0  0  0  0
    7.8553   -3.3405   -0.6982 H   0  0  0  0  0  0  0  0  0  0  0  0
    6.4330   -1.3222   -0.5998 H   0  0  0  0  0  0  0  0  0  0  0  0
    4.0110   -1.5121   -0.4097 H   0  0  0  0  0  0  0  0  0  0  0  0
    5.5932   -0.4171   -2.9710 H   0  0  0  0  0  0  0  0  0  0  0  0
    6.1594    1.7181   -1.8282 H   0  0  0  0  0  0  0  0  0  0  0  0
   -3.2328    0.2292    0.5829 H   0  0  0  0  0  0  0  0  0  0  0  0
   -2.1891   -1.9566    0.2689 H   0  0  0  0  0  0  0  0  0  0  0  0
    1.5969   -0.0866   -0.3334 H   0  0  0  0  0  0  0  0  0  0  0  0
    0.2562    2.4824   -2.5897 H   0  0  0  0  0  0  0  0  0  0  0  0
   -2.5301   -0.2126   -4.3776 H   0  0  0  0  0  0  0  0  0  0  0  0
   -0.7728   -1.8955   -4.5988 H   0  0  0  0  0  0  0  0  0  0  0  0
    1.5920   -2.5445   -4.4276 H   0  0  0  0  0  0  0  0  0  0  0  0
    3.9080   -2.0046   -3.8573 H   0  0  0  0  0  0  0  0  0  0  0  0
  1  2  2  0  0  0  0
  1117  1  0  0  0  0
  2  3  1  0  0  0  0
  2118  1  0  0  0  0
  3  4  2  0  0  0  0
  3 30  1  0  0  0  0
  4  5  1  0  0  0  0
  4119  1  0  0  0  0
  5  6  2  0  0  0  0
  5  7  1  0  0  0  0
  6  1  1  0  0  0  0
  7  8  2  0  0  0  0
  7 11  1  0  0  0  0
  8  9  1  0  0  0  0
  9 10  2  0  0  0  0
  9103  1  0  0  0  0
 10  6  1  0  0  0  0
 10104  1  0  0  0  0
 11 12  2  0  0  0  0
 11 15  1  0  0  0  0
 12 43  1  0  0  0  0
 12 13  1  0  0  0  0
 13 14  2  0  0  0  0
 13101  1  0  0  0  0
 14  8  1  0  0  0  0
 14102  1  0  0  0  0
 15 16  1  0  0  0  0
 15 17  2  0  0  0  0
 16 43  1  0  0  0  0
 17 18  1  0  0  0  0
 17 21  1  0  0  0  0
 18 19  2  0  0  0  0
 19 20  1  0  0  0  0
 19115  1  0  0  0  0
 20 16  2  0  0  0  0
 20116  1  0  0  0  0
 21 22  2  0  0  0  0
 21 28  1  0  0  0  0
 22 23  1  0  0  0  0
 23 24  2  0  0  0  0
 23123  1  0  0  0  0
 24 18  1  0  0  0  0
 24124  1  0  0  0  0
 25 26  1  0  0  0  0
 25 29  1  0  0  0  0
 26 27  2  0  0  0  0
 26121  1  0  0  0  0
 27 22  1  0  0  0  0
 27122  1  0  0  0  0
 28 25  2  0  0  0  0
 28120  1  0  0  0  0
 29 31  2  0  0  0  0
 30 37  1  0  0  0  0
 31 32  1  0  0  0  0
 32 52  1  0  0  0  0
 32 33  1  0  0  0  0
 33 34  1  0  0  0  0
 33 36  2  0  0  0  0
 34 58  1  0  0  0  0
 34 35  1  0  0  0  0
 35 29  1  0  0  0  0
 37 38  1  0  0  0  0
 38 70  1  0  0  0  0
 38 39  1  0  0  0  0
 39 40  1  0  0  0  0
 39 42  2  0  0  0  0
 40 64  1  0  0  0  0
 40 41  1  0  0  0  0
 41 30  2  0  0  0  0
 43 51  1  0  0  0  0
 44 45  1  0  0  0  0
 44 48  1  0  0  0  0
 44 49  1  0  0  0  0
 44 50  1  0  0  0  0
 45 46  1  0  0  0  0
 45 95  1  0  0  0  0
 45 96  1  0  0  0  0
 46 47  1  0  0  0  0
 46 97  1  0  0  0  0
 46 98  1  0  0  0  0
 47 51  1  0  0  0  0
 48 89  1  0  0  0  0
 48 90  1  0  0  0  0
 48 91  1  0  0  0  0
 49 86  1  0  0  0  0
 49 87  1  0  0  0  0
 49 88  1  0  0  0  0
 50 92  1  0  0  0  0
 50 93  1  0  0  0  0
 50 94  1  0  0  0  0
 51 99  1  0  0  0  0
 51100  1  0  0  0  0
 52 53  2  0  0  0  0
 52 57  1  0  0  0  0
 53 54  1  0  0  0  0
 53 85  1  0  0  0  0
 54 55  2  0  0  0  0
 54 84  1  0  0  0  0
 55 56  1  0  0  0  0
 55 83  1  0  0  0  0
 56 57  2  0  0  0  0
 56 82  1  0  0  0  0
 57 81  1  0  0  0  0
 58 59  2  0  0  0  0
 58 63  1  0  0  0  0
 59 60  1  0  0  0  0
 59 80  1  0  0  0  0
 60 61  2  0  0  0  0
 60 79  1  0  0  0  0
 61 62  1  0  0  0  0
 61 78  1  0  0  0  0
 62 63  2  0  0  0  0
 62 77  1  0  0  0  0
 63 76  1  0  0  0  0
 64 65  2  0  0  0  0
 64 69  1  0  0  0  0
 65 66  1  0  0  0  0
 65110  1  0  0  0  0
 66 67  2  0  0  0  0
 66111  1  0  0  0  0
 67 68  1  0  0  0  0
 67112  1  0  0  0  0
 68 69  2  0  0  0  0
 68113  1  0  0  0  0
 69114  1  0  0  0  0
 70 71  2  0  0  0  0
 70 75  1  0  0  0  0
 71 72  1  0  0  0  0
 71105  1  0  0  0  0
 72 73  2  0  0  0  0
 72106  1  0  0  0  0
 73 74  1  0  0  0  0
 73107  1  0  0  0  0
 74 75  2  0  0  0  0
 74108  1  0  0  0  0
 75109  1  0  0  0  0
M  END
