 energy: -290.543944275945 gnorm: 0.000183626972 xtb: 6.7.1 (edcfbbe)
          03062516393D

109120  0     0  0            999 V2000
    1.9461    1.4963    1.9814 C   0  0  0  0  0  0  0  0  0  0  0  0
    1.8519    0.1930    1.4956 C   0  0  0  0  0  0  0  0  0  0  0  0
    3.0118   -0.4967    1.0530 C   0  0  0  0  0  0  0  0  0  0  0  0
    4.2231    0.2749    0.9661 C   0  0  0  0  0  0  0  0  0  0  0  0
    4.2754    1.6215    1.4237 C   0  0  0  0  0  0  0  0  0  0  0  0
    3.1586    2.1522    1.9743 C   0  0  0  0  0  0  0  0  0  0  0  0
    3.0918   -1.9241    0.8671 C   0  0  0  0  0  0  0  0  0  0  0  0
    4.4111   -2.4181    0.7119 C   0  0  0  0  0  0  0  0  0  0  0  0
    5.4998   -1.5330    0.4333 C   0  0  0  0  0  0  0  0  0  0  0  0
    5.3815   -0.2191    0.5369 N   0  0  0  0  0  0  0  0  0  0  0  0
    2.0470   -2.9290    0.9836 C   0  0  0  0  0  0  0  0  0  0  0  0
    2.5234   -4.2090    1.4614 C   0  0  0  0  0  0  0  0  0  0  0  0
    3.7879   -4.6090    1.4182 N   0  0  0  0  0  0  0  0  0  0  0  0
    4.7024   -3.8010    0.9015 C   0  0  0  0  0  0  0  0  0  0  0  0
    5.9958   -4.3034    0.6348 C   0  0  0  0  0  0  0  0  0  0  0  0
    6.9554   -3.4206    0.2165 C   0  0  0  0  0  0  0  0  0  0  0  0
    6.7724   -2.0703    0.1131 C   0  0  0  0  0  0  0  0  0  0  0  0
    0.6648   -2.8978    0.6058 C   0  0  0  0  0  0  0  0  0  0  0  0
   -0.1570   -3.9749    0.9672 C   0  0  0  0  0  0  0  0  0  0  0  0
    0.3151   -5.0461    1.6856 C   0  0  0  0  0  0  0  0  0  0  0  0
    1.6353   -5.2169    1.9310 C   0  0  0  0  0  0  0  0  0  0  0  0
    0.6677   -0.3846    1.5421 O   0  0  0  0  0  0  0  0  0  0  0  0
   -3.1915   -1.9155    0.5586 C   0  0  0  0  0  0  0  0  0  0  0  0
   -2.6336   -0.6496    0.3488 C   0  0  0  0  0  0  0  0  0  0  0  0
   -3.3122    0.3063   -0.4466 C   0  0  0  0  0  0  0  0  0  0  0  0
   -4.5589   -0.1072   -1.0315 C   0  0  0  0  0  0  0  0  0  0  0  0
   -4.9798   -1.4646   -0.9775 C   0  0  0  0  0  0  0  0  0  0  0  0
   -4.3086   -2.3008   -0.1511 C   0  0  0  0  0  0  0  0  0  0  0  0
   -2.9491    1.7042   -0.5382 C   0  0  0  0  0  0  0  0  0  0  0  0
   -4.0535    2.5473   -0.8298 C   0  0  0  0  0  0  0  0  0  0  0  0
   -5.2742    2.0203   -1.3545 C   0  0  0  0  0  0  0  0  0  0  0  0
   -5.4479    0.7225   -1.5672 N   0  0  0  0  0  0  0  0  0  0  0  0
   -1.6672    2.3567   -0.3607 C   0  0  0  0  0  0  0  0  0  0  0  0
   -1.7380    3.7920   -0.1804 C   0  0  0  0  0  0  0  0  0  0  0  0
   -2.8584    4.5078   -0.1639 N   0  0  0  0  0  0  0  0  0  0  0  0
   -3.9815    3.9479   -0.5788 C   0  0  0  0  0  0  0  0  0  0  0  0
   -5.1104    4.7768   -0.7865 C   0  0  0  0  0  0  0  0  0  0  0  0
   -6.2352    4.2126   -1.3196 C   0  0  0  0  0  0  0  0  0  0  0  0
   -6.3555    2.8878   -1.6389 C   0  0  0  0  0  0  0  0  0  0  0  0
   -0.3478    1.8091   -0.5369 C   0  0  0  0  0  0  0  0  0  0  0  0
    0.7327    2.7072   -0.6084 C   0  0  0  0  0  0  0  0  0  0  0  0
    0.5940    4.0615   -0.4578 C   0  0  0  0  0  0  0  0  0  0  0  0
   -0.5923    4.6368   -0.1684 C   0  0  0  0  0  0  0  0  0  0  0  0
   -1.5167   -0.3609    0.9908 O   0  0  0  0  0  0  0  0  0  0  0  0
   -0.2075   -0.5397    0.3962 B   0  0  0  0  0  0  0  0  0  0  0  0
    0.0792   -1.9344   -0.1938 N   0  0  0  0  0  0  0  0  0  0  0  0
    0.0177   -3.3720   -2.2101 C   0  0  0  0  0  0  0  0  0  0  0  0
   -0.7426   -2.4139   -1.2932 C   0  0  0  0  0  0  0  0  0  0  0  0
   -0.0385    0.4863   -0.7578 N   0  0  0  0  0  0  0  0  0  0  0  0
    0.8277    0.8411   -3.0504 C   0  0  0  0  0  0  0  0  0  0  0  0
    1.0661    0.2224   -1.6762 C   0  0  0  0  0  0  0  0  0  0  0  0
   -7.6929    5.3100   -1.6195 S   0  0  0  0  0  0  0  0  0  0  0  0
   -6.7620    6.5006   -2.3162 F   0  0  0  0  0  0  0  0  0  0  0  0
   -7.5391    6.0616   -0.1432 F   0  0  0  0  0  0  0  0  0  0  0  0
   -8.9717    6.2713   -1.8827 F   0  0  0  0  0  0  0  0  0  0  0  0
   -7.9820    4.6589   -3.1247 F   0  0  0  0  0  0  0  0  0  0  0  0
   -8.7582    4.2195   -0.9516 F   0  0  0  0  0  0  0  0  0  0  0  0
    2.0773    5.0625   -0.9471 S   0  0  0  0  0  0  0  0  0  0  0  0
    3.1399    3.9683   -0.2543 F   0  0  0  0  0  0  0  0  0  0  0  0
    2.0710    6.1056    0.3225 F   0  0  0  0  0  0  0  0  0  0  0  0
    3.3800    5.8621   -1.4875 F   0  0  0  0  0  0  0  0  0  0  0  0
    1.1380    6.1579   -1.7916 F   0  0  0  0  0  0  0  0  0  0  0  0
    2.1898    4.1619   -2.3704 F   0  0  0  0  0  0  0  0  0  0  0  0
   -4.8353   -4.0640    0.0143 S   0  0  0  0  0  0  0  0  0  0  0  0
   -6.4527   -3.6789    0.1072 F   0  0  0  0  0  0  0  0  0  0  0  0
   -4.7332   -4.0367    1.6615 F   0  0  0  0  0  0  0  0  0  0  0  0
   -5.2688   -5.6137    0.1221 F   0  0  0  0  0  0  0  0  0  0  0  0
   -3.2556   -4.5785   -0.1234 F   0  0  0  0  0  0  0  0  0  0  0  0
   -4.9931   -4.2224   -1.6433 F   0  0  0  0  0  0  0  0  0  0  0  0
   -0.9347   -6.2958    2.2265 S   0  0  0  0  0  0  0  0  0  0  0  0
   -1.4483   -6.5585    0.6753 F   0  0  0  0  0  0  0  0  0  0  0  0
   -2.0960   -5.1409    2.4776 F   0  0  0  0  0  0  0  0  0  0  0  0
   -2.0176   -7.3919    2.7128 F   0  0  0  0  0  0  0  0  0  0  0  0
   -0.4674   -6.1577    3.8213 F   0  0  0  0  0  0  0  0  0  0  0  0
    0.1375   -7.5649    2.0559 F   0  0  0  0  0  0  0  0  0  0  0  0
    8.6305   -4.0976   -0.1770 S   0  0  0  0  0  0  0  0  0  0  0  0
    7.9969   -5.3575   -1.0651 F   0  0  0  0  0  0  0  0  0  0  0  0
    8.6562   -5.0716    1.1723 F   0  0  0  0  0  0  0  0  0  0  0  0
   10.0950   -4.6955   -0.5333 F   0  0  0  0  0  0  0  0  0  0  0  0
    8.7591   -3.1882   -1.5663 F   0  0  0  0  0  0  0  0  0  0  0  0
    9.4174   -2.9034    0.6719 F   0  0  0  0  0  0  0  0  0  0  0  0
    3.1911    3.7795    2.8511 S   0  0  0  0  0  0  0  0  0  0  0  0
    4.4704    3.3226    3.8208 F   0  0  0  0  0  0  0  0  0  0  0  0
    3.1471    5.1874    3.6517 F   0  0  0  0  0  0  0  0  0  0  0  0
    1.8409    4.3009    2.0008 F   0  0  0  0  0  0  0  0  0  0  0  0
    4.2820    4.5037    1.8518 F   0  0  0  0  0  0  0  0  0  0  0  0
    2.1609    3.2129    4.0411 F   0  0  0  0  0  0  0  0  0  0  0  0
   -0.6084   -3.6154   -3.0634 H   0  0  0  0  0  0  0  0  0  0  0  0
    0.2568   -4.2944   -1.6883 H   0  0  0  0  0  0  0  0  0  0  0  0
    0.9413   -2.9238   -2.5701 H   0  0  0  0  0  0  0  0  0  0  0  0
   -1.0567   -1.5265   -1.8461 H   0  0  0  0  0  0  0  0  0  0  0  0
   -1.6504   -2.9224   -0.9552 H   0  0  0  0  0  0  0  0  0  0  0  0
    1.1246   -0.8600   -1.7677 H   0  0  0  0  0  0  0  0  0  0  0  0
    2.0378    0.5437   -1.2808 H   0  0  0  0  0  0  0  0  0  0  0  0
   -0.1630    0.5754   -3.4116 H   0  0  0  0  0  0  0  0  0  0  0  0
    1.5676    0.4581   -3.7478 H   0  0  0  0  0  0  0  0  0  0  0  0
    0.9122    1.9237   -3.0264 H   0  0  0  0  0  0  0  0  0  0  0  0
   -5.8714   -1.7509   -1.5053 H   0  0  0  0  0  0  0  0  0  0  0  0
   -7.2570    2.4765   -2.0562 H   0  0  0  0  0  0  0  0  0  0  0  0
   -5.0428    5.8235   -0.5509 H   0  0  0  0  0  0  0  0  0  0  0  0
    5.2119    2.1465    1.3746 H   0  0  0  0  0  0  0  0  0  0  0  0
    6.1957   -5.3507    0.7710 H   0  0  0  0  0  0  0  0  0  0  0  0
    7.5689   -1.4003   -0.1561 H   0  0  0  0  0  0  0  0  0  0  0  0
    2.0525   -6.1007    2.3781 H   0  0  0  0  0  0  0  0  0  0  0  0
   -0.7376    5.6956   -0.0588 H   0  0  0  0  0  0  0  0  0  0  0  0
   -1.1957   -3.9678    0.6986 H   0  0  0  0  0  0  0  0  0  0  0  0
    1.0600    1.9565    2.3806 H   0  0  0  0  0  0  0  0  0  0  0  0
    1.7221    2.3330   -0.7824 H   0  0  0  0  0  0  0  0  0  0  0  0
   -2.7348   -2.5725    1.2789 H   0  0  0  0  0  0  0  0  0  0  0  0
  1  2  2  0  0  0  0
  1107  1  0  0  0  0
  2  3  1  0  0  0  0
  3  4  2  0  0  0  0
  3  7  1  0  0  0  0
  4  5  1  0  0  0  0
  5  6  2  0  0  0  0
  5101  1  0  0  0  0
  6  1  1  0  0  0  0
  6 82  1  0  0  0  0
  7  8  1  0  0  0  0
  7 11  2  0  0  0  0
  8  9  1  0  0  0  0
  9 10  2  0  0  0  0
 10  4  1  0  0  0  0
 11 12  1  0  0  0  0
 11 18  1  0  0  0  0
 12 13  2  0  0  0  0
 13 14  1  0  0  0  0
 14  8  1  0  0  0  0
 14 15  2  0  0  0  0
 15 16  1  0  0  0  0
 15102  1  0  0  0  0
 16 76  1  0  0  0  0
 16 17  2  0  0  0  0
 17  9  1  0  0  0  0
 17103  1  0  0  0  0
 18 46  1  0  0  0  0
 18 19  2  0  0  0  0
 19 20  1  0  0  0  0
 19106  1  0  0  0  0
 20 70  1  0  0  0  0
 20 21  2  0  0  0  0
 21 12  1  0  0  0  0
 21104  1  0  0  0  0
 22  2  1  0  0  0  0
 23 24  2  0  0  0  0
 23109  1  0  0  0  0
 24 25  1  0  0  0  0
 24 44  1  0  0  0  0
 25 26  2  0  0  0  0
 25 29  1  0  0  0  0
 26 27  1  0  0  0  0
 27 28  2  0  0  0  0
 27 98  1  0  0  0  0
 28 64  1  0  0  0  0
 28 23  1  0  0  0  0
 29 33  2  0  0  0  0
 30 29  1  0  0  0  0
 30 31  1  0  0  0  0
 31 32  2  0  0  0  0
 32 26  1  0  0  0  0
 33 34  1  0  0  0  0
 33 40  1  0  0  0  0
 34 35  2  0  0  0  0
 35 36  1  0  0  0  0
 36 30  1  0  0  0  0
 36 37  2  0  0  0  0
 37 38  1  0  0  0  0
 37100  1  0  0  0  0
 38 52  1  0  0  0  0
 38 39  2  0  0  0  0
 39 31  1  0  0  0  0
 39 99  1  0  0  0  0
 40 49  1  0  0  0  0
 40 41  2  0  0  0  0
 41 42  1  0  0  0  0
 41108  1  0  0  0  0
 42 58  1  0  0  0  0
 42 43  2  0  0  0  0
 43 34  1  0  0  0  0
 43105  1  0  0  0  0
 45 46  1  0  0  0  0
 45 49  1  0  0  0  0
 45 22  1  0  0  0  0
 45 44  1  0  0  0  0
 46 48  1  0  0  0  0
 47 48  1  0  0  0  0
 47 88  1  0  0  0  0
 47 89  1  0  0  0  0
 47 90  1  0  0  0  0
 48 91  1  0  0  0  0
 48 92  1  0  0  0  0
 49 51  1  0  0  0  0
 50 51  1  0  0  0  0
 50 95  1  0  0  0  0
 50 96  1  0  0  0  0
 50 97  1  0  0  0  0
 51 93  1  0  0  0  0
 51 94  1  0  0  0  0
 52 53  1  0  0  0  0
 52 54  1  0  0  0  0
 52 55  1  0  0  0  0
 52 56  1  0  0  0  0
 52 57  1  0  0  0  0
 58 59  1  0  0  0  0
 58 60  1  0  0  0  0
 58 61  1  0  0  0  0
 58 62  1  0  0  0  0
 58 63  1  0  0  0  0
 64 65  1  0  0  0  0
 64 66  1  0  0  0  0
 64 67  1  0  0  0  0
 64 68  1  0  0  0  0
 64 69  1  0  0  0  0
 70 71  1  0  0  0  0
 70 72  1  0  0  0  0
 70 73  1  0  0  0  0
 70 74  1  0  0  0  0
 70 75  1  0  0  0  0
 76 77  1  0  0  0  0
 76 78  1  0  0  0  0
 76 79  1  0  0  0  0
 76 80  1  0  0  0  0
 76 81  1  0  0  0  0
 82 83  1  0  0  0  0
 82 84  1  0  0  0  0
 82 85  1  0  0  0  0
 82 86  1  0  0  0  0
 82 87  1  0  0  0  0
M  CHG  1   1  -1
M  END
