 energy: -111.428517037222 gnorm: 0.000137308660 xtb: 6.7.1 (edcfbbe)
          02282513453D

 78 82  0     0  0            999 V2000
   -1.3654    2.1931   -0.5483 C   0  0  0  0  0  0  0  0  0  0  0  0
   -1.4050    0.8263   -0.6826 C   0  0  0  0  0  0  0  0  0  0  0  0
   -0.2839    0.0273   -0.3260 C   0  0  0  0  0  0  0  0  0  0  0  0
    0.9158    0.7199   -0.0672 C   0  0  0  0  0  0  0  0  0  0  0  0
    0.9279    2.1152    0.0584 C   0  0  0  0  0  0  0  0  0  0  0  0
   -0.2063    2.8666   -0.1231 C   0  0  0  0  0  0  0  0  0  0  0  0
   -0.3000   -1.3999   -0.3501 C   0  0  0  0  0  0  0  0  0  0  0  0
    0.9276   -2.0534   -0.5680 C   0  0  0  0  0  0  0  0  0  0  0  0
    2.1631   -1.3774   -0.4086 C   0  0  0  0  0  0  0  0  0  0  0  0
    2.1944    0.0185    0.0150 C   0  0  0  0  0  0  0  0  0  0  0  0
   -1.4550   -2.2196   -0.1715 C   0  0  0  0  0  0  0  0  0  0  0  0
   -1.4615   -3.5508   -0.6349 C   0  0  0  0  0  0  0  0  0  0  0  0
   -0.2514   -4.1770   -1.1601 C   0  0  0  0  0  0  0  0  0  0  0  0
    0.9775   -3.4163   -0.9576 C   0  0  0  0  0  0  0  0  0  0  0  0
    2.1998   -4.0313   -1.1863 C   0  0  0  0  0  0  0  0  0  0  0  0
    3.4134   -3.3729   -1.0194 C   0  0  0  0  0  0  0  0  0  0  0  0
    3.3643   -2.0454   -0.6199 C   0  0  0  0  0  0  0  0  0  0  0  0
   -2.5923   -1.8115    0.5789 C   0  0  0  0  0  0  0  0  0  0  0  0
   -3.7141   -2.6024    0.6420 C   0  0  0  0  0  0  0  0  0  0  0  0
   -3.7687   -3.8689    0.0332 C   0  0  0  0  0  0  0  0  0  0  0  0
   -2.6184   -4.3367   -0.5514 C   0  0  0  0  0  0  0  0  0  0  0  0
   -2.4564   -0.6445    1.2959 O   0  0  0  0  0  0  0  0  0  0  0  0
   -2.4688    0.1575   -1.2455 O   0  0  0  0  0  0  0  0  0  0  0  0
    3.2415    0.5858    0.3583 O   0  0  0  0  0  0  0  0  0  0  0  0
   -0.2577   -5.3007   -1.6832 O   0  0  0  0  0  0  0  0  0  0  0  0
   -3.5382   -0.1789    2.0425 C   0  0  0  0  0  0  0  0  0  0  0  0
   -3.5819    0.8870   -1.6619 C   0  0  0  0  0  0  0  0  0  0  0  0
   -5.0644   -4.6637    0.1009 C   0  0  0  0  0  0  0  0  0  0  0  0
   -4.9614   -6.0007   -0.6375 C   0  0  0  0  0  0  0  0  0  0  0  0
   -6.1912   -3.8475   -0.5491 C   0  0  0  0  0  0  0  0  0  0  0  0
   -0.2559    4.3765    0.0580 C   0  0  0  0  0  0  0  0  0  0  0  0
   -1.3396    4.7257    1.0886 C   0  0  0  0  0  0  0  0  0  0  0  0
    1.0749    4.9419    0.5608 C   0  0  0  0  0  0  0  0  0  0  0  0
   -0.5839    5.0478   -1.2837 C   0  0  0  0  0  0  0  0  0  0  0  0
    4.7135   -4.1207   -1.2785 C   0  0  0  0  0  0  0  0  0  0  0  0
    5.9498   -3.2494   -1.0402 C   0  0  0  0  0  0  0  0  0  0  0  0
    4.7350   -4.5973   -2.7377 C   0  0  0  0  0  0  0  0  0  0  0  0
    4.7921   -5.3330   -0.3399 C   0  0  0  0  0  0  0  0  0  0  0  0
    4.6778   -3.7431   -3.4097 H   0  0  0  0  0  0  0  0  0  0  0  0
    3.8913   -5.2490   -2.9466 H   0  0  0  0  0  0  0  0  0  0  0  0
    5.6543   -5.1439   -2.9479 H   0  0  0  0  0  0  0  0  0  0  0  0
    6.8518   -3.8291   -1.2369 H   0  0  0  0  0  0  0  0  0  0  0  0
    5.9867   -2.9016   -0.0107 H   0  0  0  0  0  0  0  0  0  0  0  0
    5.9496   -2.3864   -1.7018 H   0  0  0  0  0  0  0  0  0  0  0  0
    5.7172   -5.8850   -0.5053 H   0  0  0  0  0  0  0  0  0  0  0  0
    3.9557   -6.0068   -0.5036 H   0  0  0  0  0  0  0  0  0  0  0  0
    4.7649   -5.0038    0.6971 H   0  0  0  0  0  0  0  0  0  0  0  0
    2.1618   -5.0643   -1.5039 H   0  0  0  0  0  0  0  0  0  0  0  0
    4.2603   -1.4662   -0.4558 H   0  0  0  0  0  0  0  0  0  0  0  0
   -2.5404   -5.3295   -0.9649 H   0  0  0  0  0  0  0  0  0  0  0  0
   -4.5744   -2.2595    1.1972 H   0  0  0  0  0  0  0  0  0  0  0  0
   -5.9191   -6.5197   -0.5978 H   0  0  0  0  0  0  0  0  0  0  0  0
   -4.2097   -6.6385   -0.1798 H   0  0  0  0  0  0  0  0  0  0  0  0
   -4.6986   -5.8447   -1.6806 H   0  0  0  0  0  0  0  0  0  0  0  0
   -6.3442   -2.9042   -0.0314 H   0  0  0  0  0  0  0  0  0  0  0  0
   -7.1276   -4.4046   -0.5285 H   0  0  0  0  0  0  0  0  0  0  0  0
   -5.9395   -3.6288   -1.5847 H   0  0  0  0  0  0  0  0  0  0  0  0
   -3.2121    0.7674    2.4764 H   0  0  0  0  0  0  0  0  0  0  0  0
   -3.8080   -0.8699    2.8530 H   0  0  0  0  0  0  0  0  0  0  0  0
   -4.4251   -0.0004    1.4205 H   0  0  0  0  0  0  0  0  0  0  0  0
   -4.2823    0.1534   -2.0632 H   0  0  0  0  0  0  0  0  0  0  0  0
   -3.3292    1.6095   -2.4499 H   0  0  0  0  0  0  0  0  0  0  0  0
   -4.0621    1.4227   -0.8324 H   0  0  0  0  0  0  0  0  0  0  0  0
   -2.2385    2.7768   -0.7991 H   0  0  0  0  0  0  0  0  0  0  0  0
    1.8834    2.5553    0.2954 H   0  0  0  0  0  0  0  0  0  0  0  0
   -0.5959    6.1321   -1.1748 H   0  0  0  0  0  0  0  0  0  0  0  0
   -1.5552    4.7324   -1.6560 H   0  0  0  0  0  0  0  0  0  0  0  0
    0.1665    4.7813   -2.0250 H   0  0  0  0  0  0  0  0  0  0  0  0
    1.3553    4.4827    1.5052 H   0  0  0  0  0  0  0  0  0  0  0  0
    0.9853    6.0174    0.7141 H   0  0  0  0  0  0  0  0  0  0  0  0
    1.8677    4.7663   -0.1617 H   0  0  0  0  0  0  0  0  0  0  0  0
   -1.3819    5.8029    1.2487 H   0  0  0  0  0  0  0  0  0  0  0  0
   -1.1176    4.2417    2.0374 H   0  0  0  0  0  0  0  0  0  0  0  0
   -2.3199    4.3915    0.7591 H   0  0  0  0  0  0  0  0  0  0  0  0
   -5.4169   -4.9540    1.5672 C   0  0  0  0  0  0  0  0  0  0  0  0
   -6.3279   -5.5490    1.6299 H   0  0  0  0  0  0  0  0  0  0  0  0
   -5.5721   -4.0344    2.1256 H   0  0  0  0  0  0  0  0  0  0  0  0
   -4.6080   -5.5062    2.0409 H   0  0  0  0  0  0  0  0  0  0  0  0
  1  2  2  0  0  0  0
  1 64  1  0  0  0  0
  2  3  1  0  0  0  0
  2 23  1  0  0  0  0
  3  4  2  0  0  0  0
  3  7  1  0  0  0  0
  4  5  1  0  0  0  0
  5  6  2  0  0  0  0
  5 65  1  0  0  0  0
  6 31  1  0  0  0  0
  6  1  1  0  0  0  0
  7  8  1  0  0  0  0
  8  9  2  0  0  0  0
  9 10  1  0  0  0  0
 10  4  1  0  0  0  0
 10 24  2  0  0  0  0
 11 12  2  0  0  0  0
 11 18  1  0  0  0  0
 11  7  1  0  0  0  0
 12 13  1  0  0  0  0
 13 14  1  0  0  0  0
 13 25  2  0  0  0  0
 14  8  1  0  0  0  0
 14 15  2  0  0  0  0
 15 16  1  0  0  0  0
 15 48  1  0  0  0  0
 16 35  1  0  0  0  0
 16 17  2  0  0  0  0
 17  9  1  0  0  0  0
 17 49  1  0  0  0  0
 18 19  2  0  0  0  0
 19 20  1  0  0  0  0
 19 51  1  0  0  0  0
 20 28  1  0  0  0  0
 20 21  2  0  0  0  0
 21 12  1  0  0  0  0
 21 50  1  0  0  0  0
 22 26  1  0  0  0  0
 22 18  1  0  0  0  0
 23 27  1  0  0  0  0
 26 58  1  0  0  0  0
 26 59  1  0  0  0  0
 26 60  1  0  0  0  0
 27 61  1  0  0  0  0
 27 62  1  0  0  0  0
 27 63  1  0  0  0  0
 28 29  1  0  0  0  0
 28 30  1  0  0  0  0
 28 75  1  0  0  0  0
 29 52  1  0  0  0  0
 29 53  1  0  0  0  0
 29 54  1  0  0  0  0
 30 55  1  0  0  0  0
 30 56  1  0  0  0  0
 30 57  1  0  0  0  0
 31 32  1  0  0  0  0
 31 33  1  0  0  0  0
 31 34  1  0  0  0  0
 32 72  1  0  0  0  0
 32 73  1  0  0  0  0
 32 74  1  0  0  0  0
 33 69  1  0  0  0  0
 33 70  1  0  0  0  0
 33 71  1  0  0  0  0
 34 66  1  0  0  0  0
 34 67  1  0  0  0  0
 34 68  1  0  0  0  0
 35 36  1  0  0  0  0
 35 37  1  0  0  0  0
 35 38  1  0  0  0  0
 36 42  1  0  0  0  0
 36 43  1  0  0  0  0
 36 44  1  0  0  0  0
 37 39  1  0  0  0  0
 37 40  1  0  0  0  0
 37 41  1  0  0  0  0
 38 45  1  0  0  0  0
 38 46  1  0  0  0  0
 38 47  1  0  0  0  0
 75 76  1  0  0  0  0
 75 77  1  0  0  0  0
 75 78  1  0  0  0  0
M  CHG  1   1  -1
M  END
