 energy: -28.486881592234 gnorm: 0.000358118070 xtb: 6.7.1 (edcfbbe)
          12022412173D

156164  0     0  0            999 V2000
   -1.2958    1.6655    0.0425 C   0  0  0  0  0  0  0  0  0  0  0  0
   -0.9573    0.3255   -0.1782 C   0  0  0  0  0  0  0  0  0  0  0  0
    0.2983   -0.1489    0.3372 C   0  0  0  0  0  0  0  0  0  0  0  0
    1.2556    0.8231    0.7198 C   0  0  0  0  0  0  0  0  0  0  0  0
    0.8762    2.1432    0.8848 C   0  0  0  0  0  0  0  0  0  0  0  0
   -0.4138    2.5728    0.6008 C   0  0  0  0  0  0  0  0  0  0  0  0
    0.6634   -1.5441    0.3485 C   0  0  0  0  0  0  0  0  0  0  0  0
    2.0569   -1.8697    0.2371 C   0  0  0  0  0  0  0  0  0  0  0  0
    3.0505   -0.8901    0.4520 C   0  0  0  0  0  0  0  0  0  0  0  0
    2.6717    0.4707    0.8259 C   0  0  0  0  0  0  0  0  0  0  0  0
   -0.2878   -2.6215    0.4377 C   0  0  0  0  0  0  0  0  0  0  0  0
    0.0892   -3.9205    0.0245 C   0  0  0  0  0  0  0  0  0  0  0  0
    1.4783   -4.2234   -0.3189 C   0  0  0  0  0  0  0  0  0  0  0  0
    2.4691   -3.1673   -0.1313 C   0  0  0  0  0  0  0  0  0  0  0  0
    3.8137   -3.4385   -0.3207 C   0  0  0  0  0  0  0  0  0  0  0  0
    4.7934   -2.4757   -0.1184 C   0  0  0  0  0  0  0  0  0  0  0  0
    4.3854   -1.2105    0.2786 C   0  0  0  0  0  0  0  0  0  0  0  0
   -1.5954   -2.4575    1.0057 C   0  0  0  0  0  0  0  0  0  0  0  0
   -2.5082   -3.5125    0.8988 C   0  0  0  0  0  0  0  0  0  0  0  0
   -2.1622   -4.7460    0.3806 C   0  0  0  0  0  0  0  0  0  0  0  0
   -0.8459   -4.9396   -0.0161 C   0  0  0  0  0  0  0  0  0  0  0  0
   -1.8807   -1.2941    1.6964 O   0  0  0  0  0  0  0  0  0  0  0  0
   -1.7302   -0.5363   -0.9371 O   0  0  0  0  0  0  0  0  0  0  0  0
    3.5117    1.2995    1.1423 O   0  0  0  0  0  0  0  0  0  0  0  0
    1.8108   -5.3390   -0.6921 O   0  0  0  0  0  0  0  0  0  0  0  0
   -3.2370   -1.1017    2.0170 C   0  0  0  0  0  0  0  0  0  0  0  0
   -2.8880    0.0330   -1.4998 C   0  0  0  0  0  0  0  0  0  0  0  0
   -3.2234   -5.8514    0.2780 C   0  0  0  0  0  0  0  0  0  0  0  0
   -2.6170   -7.1734   -0.2288 C   0  0  0  0  0  0  0  0  0  0  0  0
   -4.3189   -5.4021   -0.7045 C   0  0  0  0  0  0  0  0  0  0  0  0
   -0.8590    4.0235    0.8205 C   0  0  0  0  0  0  0  0  0  0  0  0
   -2.1028    4.0319    1.7271 C   0  0  0  0  0  0  0  0  0  0  0  0
    0.2492    4.8544    1.4938 C   0  0  0  0  0  0  0  0  0  0  0  0
   -1.1983    4.6673   -0.5351 C   0  0  0  0  0  0  0  0  0  0  0  0
    6.2826   -2.7557   -0.3628 C   0  0  0  0  0  0  0  0  0  0  0  0
    7.1024   -2.3511    0.8769 C   0  0  0  0  0  0  0  0  0  0  0  0
    6.7478   -1.9352   -1.5784 C   0  0  0  0  0  0  0  0  0  0  0  0
    6.5396   -4.2482   -0.6461 C   0  0  0  0  0  0  0  0  0  0  0  0
    6.6183   -0.8680   -1.4038 H   0  0  0  0  0  0  0  0  0  0  0  0
    6.1717   -2.2003   -2.4643 H   0  0  0  0  0  0  0  0  0  0  0  0
    7.8006   -2.1157   -1.7926 H   0  0  0  0  0  0  0  0  0  0  0  0
    8.1614   -2.5571    0.7256 H   0  0  0  0  0  0  0  0  0  0  0  0
    6.7762   -2.9053    1.7555 H   0  0  0  0  0  0  0  0  0  0  0  0
    7.0006   -1.2892    1.0939 H   0  0  0  0  0  0  0  0  0  0  0  0
    7.6037   -4.4379   -0.7829 H   0  0  0  0  0  0  0  0  0  0  0  0
    6.0306   -4.5696   -1.5539 H   0  0  0  0  0  0  0  0  0  0  0  0
    6.1958   -4.8684    0.1810 H   0  0  0  0  0  0  0  0  0  0  0  0
    4.0791   -4.4317   -0.6309 H   0  0  0  0  0  0  0  0  0  0  0  0
    5.1098   -0.4325    0.4359 H   0  0  0  0  0  0  0  0  0  0  0  0
   -0.5128   -5.9006   -0.3616 H   0  0  0  0  0  0  0  0  0  0  0  0
   -3.5051   -3.3757    1.2695 H   0  0  0  0  0  0  0  0  0  0  0  0
   -3.3788   -7.9499   -0.2896 H   0  0  0  0  0  0  0  0  0  0  0  0
   -1.8369   -7.5276    0.4441 H   0  0  0  0  0  0  0  0  0  0  0  0
   -2.1891   -7.0534   -1.2234 H   0  0  0  0  0  0  0  0  0  0  0  0
   -4.8046   -4.4896   -0.3613 H   0  0  0  0  0  0  0  0  0  0  0  0
   -5.0849   -6.1692   -0.8132 H   0  0  0  0  0  0  0  0  0  0  0  0
   -3.8949   -5.2044   -1.6884 H   0  0  0  0  0  0  0  0  0  0  0  0
   -3.3434   -0.0949    2.4199 H   0  0  0  0  0  0  0  0  0  0  0  0
   -3.5508   -1.8202    2.7734 H   0  0  0  0  0  0  0  0  0  0  0  0
   -3.8512   -1.1937    1.1211 H   0  0  0  0  0  0  0  0  0  0  0  0
   -3.3943   -0.7296   -2.0924 H   0  0  0  0  0  0  0  0  0  0  0  0
   -2.6146    0.8635   -2.1518 H   0  0  0  0  0  0  0  0  0  0  0  0
   -3.5615    0.3704   -0.7116 H   0  0  0  0  0  0  0  0  0  0  0  0
   -2.2667    2.0126   -0.2531 H   0  0  0  0  0  0  0  0  0  0  0  0
    1.6286    2.8352    1.2152 H   0  0  0  0  0  0  0  0  0  0  0  0
   -1.4989    5.7068   -0.4081 H   0  0  0  0  0  0  0  0  0  0  0  0
   -2.0140    4.1420   -1.0297 H   0  0  0  0  0  0  0  0  0  0  0  0
   -0.3345    4.6437   -1.1985 H   0  0  0  0  0  0  0  0  0  0  0  0
    0.5507    4.4050    2.4387 H   0  0  0  0  0  0  0  0  0  0  0  0
   -0.0936    5.8684    1.6967 H   0  0  0  0  0  0  0  0  0  0  0  0
    1.1278    4.9279    0.8540 H   0  0  0  0  0  0  0  0  0  0  0  0
   -2.4215    5.0501    1.9476 H   0  0  0  0  0  0  0  0  0  0  0  0
   -1.8891    3.5279    2.6680 H   0  0  0  0  0  0  0  0  0  0  0  0
   -2.9392    3.5162    1.2580 H   0  0  0  0  0  0  0  0  0  0  0  0
   -3.8443   -6.1048    1.6636 C   0  0  0  0  0  0  0  0  0  0  0  0
   -4.5630   -6.9227    1.6287 H   0  0  0  0  0  0  0  0  0  0  0  0
   -4.3624   -5.2222    2.0342 H   0  0  0  0  0  0  0  0  0  0  0  0
   -3.0703   -6.3612    2.3857 H   0  0  0  0  0  0  0  0  0  0  0  0
   -1.7925    2.4599    5.0819 C   0  0  0  0  0  0  0  0  0  0  0  0
   -2.0901    1.1300    4.7548 C   0  0  0  0  0  0  0  0  0  0  0  0
   -1.0236    0.1656    4.7973 C   0  0  0  0  0  0  0  0  0  0  0  0
    0.3008    0.6634    4.8440 C   0  0  0  0  0  0  0  0  0  0  0  0
    0.5364    2.0013    5.1057 C   0  0  0  0  0  0  0  0  0  0  0  0
   -0.4999    2.9087    5.2866 C   0  0  0  0  0  0  0  0  0  0  0  0
   -1.2378   -1.2608    4.7611 C   0  0  0  0  0  0  0  0  0  0  0  0
   -0.1575   -2.1005    4.3223 C   0  0  0  0  0  0  0  0  0  0  0  0
    1.1622   -1.6063    4.2554 C   0  0  0  0  0  0  0  0  0  0  0  0
    1.4426   -0.2280    4.6463 C   0  0  0  0  0  0  0  0  0  0  0  0
   -2.4593   -1.9022    5.1815 C   0  0  0  0  0  0  0  0  0  0  0  0
   -2.7443   -3.2178    4.7377 C   0  0  0  0  0  0  0  0  0  0  0  0
   -1.7117   -4.0313    4.0977 C   0  0  0  0  0  0  0  0  0  0  0  0
   -0.3720   -3.4592    4.0046 C   0  0  0  0  0  0  0  0  0  0  0  0
    0.6959   -4.2686    3.6584 C   0  0  0  0  0  0  0  0  0  0  0  0
    1.9995   -3.7943    3.6237 C   0  0  0  0  0  0  0  0  0  0  0  0
    2.2046   -2.4521    3.9171 C   0  0  0  0  0  0  0  0  0  0  0  0
   -3.3664   -1.3176    6.1320 C   0  0  0  0  0  0  0  0  0  0  0  0
   -4.6247   -1.9108    6.2958 C   0  0  0  0  0  0  0  0  0  0  0  0
   -4.9656   -3.1103    5.6969 C   0  0  0  0  0  0  0  0  0  0  0  0
   -3.9873   -3.7778    4.9724 C   0  0  0  0  0  0  0  0  0  0  0  0
   -2.9265   -0.2542    6.9010 O   0  0  0  0  0  0  0  0  0  0  0  0
   -3.3490    0.7219    4.3496 O   0  0  0  0  0  0  0  0  0  0  0  0
    2.5887    0.1643    4.8021 O   0  0  0  0  0  0  0  0  0  0  0  0
   -1.9457   -5.1658    3.7097 O   0  0  0  0  0  0  0  0  0  0  0  0
   -3.8493    0.2261    7.8487 C   0  0  0  0  0  0  0  0  0  0  0  0
   -4.3407    1.7218    4.3596 C   0  0  0  0  0  0  0  0  0  0  0  0
   -6.3678   -3.6982    5.9062 C   0  0  0  0  0  0  0  0  0  0  0  0
   -6.5785   -4.9742    5.0679 C   0  0  0  0  0  0  0  0  0  0  0  0
   -7.4235   -2.6618    5.4781 C   0  0  0  0  0  0  0  0  0  0  0  0
   -0.2449    4.3305    5.8126 C   0  0  0  0  0  0  0  0  0  0  0  0
   -0.5999    4.3598    7.3092 C   0  0  0  0  0  0  0  0  0  0  0  0
    1.2325    4.7366    5.6434 C   0  0  0  0  0  0  0  0  0  0  0  0
   -1.1138    5.3599    5.0656 C   0  0  0  0  0  0  0  0  0  0  0  0
    3.1738   -4.7693    3.4538 C   0  0  0  0  0  0  0  0  0  0  0  0
    4.4634   -4.0206    3.0705 C   0  0  0  0  0  0  0  0  0  0  0  0
    2.8716   -5.8102    2.3588 C   0  0  0  0  0  0  0  0  0  0  0  0
    3.3988   -5.4953    4.7909 C   0  0  0  0  0  0  0  0  0  0  0  0
    2.6422   -5.3265    1.4132 H   0  0  0  0  0  0  0  0  0  0  0  0
    2.0265   -6.4423    2.6246 H   0  0  0  0  0  0  0  0  0  0  0  0
    3.7284   -6.4631    2.1972 H   0  0  0  0  0  0  0  0  0  0  0  0
    5.2643   -4.7210    2.8363 H   0  0  0  0  0  0  0  0  0  0  0  0
    4.8122   -3.3867    3.8845 H   0  0  0  0  0  0  0  0  0  0  0  0
    4.2970   -3.3925    2.1982 H   0  0  0  0  0  0  0  0  0  0  0  0
    4.2331   -6.1924    4.7224 H   0  0  0  0  0  0  0  0  0  0  0  0
    2.5115   -6.0563    5.0819 H   0  0  0  0  0  0  0  0  0  0  0  0
    3.6171   -4.7817    5.5847 H   0  0  0  0  0  0  0  0  0  0  0  0
    0.4887   -5.3036    3.4589 H   0  0  0  0  0  0  0  0  0  0  0  0
    3.1949   -2.0356    3.9211 H   0  0  0  0  0  0  0  0  0  0  0  0
   -4.1662   -4.7655    4.5908 H   0  0  0  0  0  0  0  0  0  0  0  0
   -5.3449   -1.4363    6.9335 H   0  0  0  0  0  0  0  0  0  0  0  0
   -7.5933   -5.3524    5.1878 H   0  0  0  0  0  0  0  0  0  0  0  0
   -5.8965   -5.7657    5.3761 H   0  0  0  0  0  0  0  0  0  0  0  0
   -6.4217   -4.7757    4.0081 H   0  0  0  0  0  0  0  0  0  0  0  0
   -7.3613   -1.7573    6.0811 H   0  0  0  0  0  0  0  0  0  0  0  0
   -8.4304   -3.0638    5.5861 H   0  0  0  0  0  0  0  0  0  0  0  0
   -7.2829   -2.3790    4.4354 H   0  0  0  0  0  0  0  0  0  0  0  0
   -3.3881    1.0522    8.3909 H   0  0  0  0  0  0  0  0  0  0  0  0
   -4.1012   -0.5644    8.5567 H   0  0  0  0  0  0  0  0  0  0  0  0
   -4.7449    0.5919    7.3458 H   0  0  0  0  0  0  0  0  0  0  0  0
   -5.2839    1.2778    4.0396 H   0  0  0  0  0  0  0  0  0  0  0  0
   -4.0747    2.5211    3.6672 H   0  0  0  0  0  0  0  0  0  0  0  0
   -4.4636    2.1137    5.3695 H   0  0  0  0  0  0  0  0  0  0  0  0
   -2.5993    3.1578    5.1890 H   0  0  0  0  0  0  0  0  0  0  0  0
    1.5616    2.3115    5.1906 H   0  0  0  0  0  0  0  0  0  0  0  0
   -0.8987    6.3703    5.4122 H   0  0  0  0  0  0  0  0  0  0  0  0
   -2.1761    5.1826    5.2234 H   0  0  0  0  0  0  0  0  0  0  0  0
   -0.9194    5.3286    3.9963 H   0  0  0  0  0  0  0  0  0  0  0  0
    1.8864    4.1123    6.2508 H   0  0  0  0  0  0  0  0  0  0  0  0
    1.3881    5.7687    5.9556 H   0  0  0  0  0  0  0  0  0  0  0  0
    1.5458    4.6521    4.6039 H   0  0  0  0  0  0  0  0  0  0  0  0
   -0.4305    5.3489    7.7333 H   0  0  0  0  0  0  0  0  0  0  0  0
    0.0075    3.6446    7.8627 H   0  0  0  0  0  0  0  0  0  0  0  0
   -1.6460    4.0990    7.4655 H   0  0  0  0  0  0  0  0  0  0  0  0
   -6.5540   -4.0485    7.3925 C   0  0  0  0  0  0  0  0  0  0  0  0
   -7.5369   -4.4833    7.5707 H   0  0  0  0  0  0  0  0  0  0  0  0
   -6.4604   -3.1640    8.0209 H   0  0  0  0  0  0  0  0  0  0  0  0
   -5.8024   -4.7683    7.7146 H   0  0  0  0  0  0  0  0  0  0  0  0
  1  2  2  0  0  0  0
  1  6  1  0  0  0  0
  1 64  1  0  0  0  0
  2  3  1  0  0  0  0
  2 23  1  0  0  0  0
  3  4  2  0  0  0  0
  3  7  1  0  0  0  0
  4  5  1  0  0  0  0
  4 10  1  0  0  0  0
  5  6  2  0  0  0  0
  5 65  1  0  0  0  0
  6 31  1  0  0  0  0
  7  8  2  0  0  0  0
  7 11  1  0  0  0  0
  8 14  1  0  0  0  0
  9  8  1  0  0  0  0
  9 10  1  0  0  0  0
  9 17  1  0  0  0  0
 10 24  2  0  0  0  0
 11 12  2  0  0  0  0
 11 18  1  0  0  0  0
 12 13  1  0  0  0  0
 12 21  1  0  0  0  0
 13 14  1  0  0  0  0
 13 25  2  0  0  0  0
 14 15  2  0  0  0  0
 15 16  1  0  0  0  0
 15 48  1  0  0  0  0
 16 17  2  0  0  0  0
 16 35  1  0  0  0  0
 17 49  1  0  0  0  0
 18 19  2  0  0  0  0
 18 22  1  0  0  0  0
 19 20  1  0  0  0  0
 19 51  1  0  0  0  0
 20 21  2  0  0  0  0
 20 28  1  0  0  0  0
 21 50  1  0  0  0  0
 22 26  1  0  0  0  0
 23 27  1  0  0  0  0
 26 58  1  0  0  0  0
 26 59  1  0  0  0  0
 26 60  1  0  0  0  0
 27 61  1  0  0  0  0
 27 62  1  0  0  0  0
 27 63  1  0  0  0  0
 28 29  1  0  0  0  0
 28 30  1  0  0  0  0
 28 75  1  0  0  0  0
 29 52  1  0  0  0  0
 29 53  1  0  0  0  0
 29 54  1  0  0  0  0
 30 55  1  0  0  0  0
 30 56  1  0  0  0  0
 30 57  1  0  0  0  0
 31 32  1  0  0  0  0
 31 33  1  0  0  0  0
 31 34  1  0  0  0  0
 32 72  1  0  0  0  0
 32 73  1  0  0  0  0
 32 74  1  0  0  0  0
 33 69  1  0  0  0  0
 33 70  1  0  0  0  0
 33 71  1  0  0  0  0
 34 66  1  0  0  0  0
 34 67  1  0  0  0  0
 34 68  1  0  0  0  0
 35 36  1  0  0  0  0
 35 37  1  0  0  0  0
 35 38  1  0  0  0  0
 36 42  1  0  0  0  0
 36 43  1  0  0  0  0
 36 44  1  0  0  0  0
 37 39  1  0  0  0  0
 37 40  1  0  0  0  0
 37 41  1  0  0  0  0
 38 45  1  0  0  0  0
 38 46  1  0  0  0  0
 38 47  1  0  0  0  0
 75 76  1  0  0  0  0
 75 77  1  0  0  0  0
 75 78  1  0  0  0  0
 79 80  2  0  0  0  0
 79 84  1  0  0  0  0
 79142  1  0  0  0  0
 80 81  1  0  0  0  0
 80101  1  0  0  0  0
 81 82  2  0  0  0  0
 81 85  1  0  0  0  0
 82 83  1  0  0  0  0
 82 88  1  0  0  0  0
 83 84  2  0  0  0  0
 83143  1  0  0  0  0
 84109  1  0  0  0  0
 85 86  2  0  0  0  0
 85 89  1  0  0  0  0
 86 92  1  0  0  0  0
 87 86  1  0  0  0  0
 87 88  1  0  0  0  0
 87 95  1  0  0  0  0
 88102  2  0  0  0  0
 89 90  2  0  0  0  0
 89 96  1  0  0  0  0
 90 91  1  0  0  0  0
 90 99  1  0  0  0  0
 91 92  1  0  0  0  0
 91103  2  0  0  0  0
 92 93  2  0  0  0  0
 93 94  1  0  0  0  0
 93126  1  0  0  0  0
 94 95  2  0  0  0  0
 94113  1  0  0  0  0
 95127  1  0  0  0  0
 96 97  2  0  0  0  0
 96100  1  0  0  0  0
 97 98  1  0  0  0  0
 97129  1  0  0  0  0
 98 99  2  0  0  0  0
 98106  1  0  0  0  0
 99128  1  0  0  0  0
100104  1  0  0  0  0
101105  1  0  0  0  0
104136  1  0  0  0  0
104137  1  0  0  0  0
104138  1  0  0  0  0
105139  1  0  0  0  0
105140  1  0  0  0  0
105141  1  0  0  0  0
106107  1  0  0  0  0
106108  1  0  0  0  0
106153  1  0  0  0  0
107130  1  0  0  0  0
107131  1  0  0  0  0
107132  1  0  0  0  0
108133  1  0  0  0  0
108134  1  0  0  0  0
108135  1  0  0  0  0
109110  1  0  0  0  0
109111  1  0  0  0  0
109112  1  0  0  0  0
110150  1  0  0  0  0
110151  1  0  0  0  0
110152  1  0  0  0  0
111147  1  0  0  0  0
111148  1  0  0  0  0
111149  1  0  0  0  0
112144  1  0  0  0  0
112145  1  0  0  0  0
112146  1  0  0  0  0
113114  1  0  0  0  0
113115  1  0  0  0  0
113116  1  0  0  0  0
114120  1  0  0  0  0
114121  1  0  0  0  0
114122  1  0  0  0  0
115117  1  0  0  0  0
115118  1  0  0  0  0
115119  1  0  0  0  0
116123  1  0  0  0  0
116124  1  0  0  0  0
116125  1  0  0  0  0
153154  1  0  0  0  0
153155  1  0  0  0  0
153156  1  0  0  0  0
M  END
