energy: -211.933095864612 gnorm: 0.000741140981 xtb: 6.7.1 (edcfbbe)_energy: -211.933095864612 gnorm: 0.000741140981 xtb: 6.7.1 (edcfbbe)
 OpenBabel03112512553D

230252  0  0  0  0  0  0  0  0999 V2000
   -0.2702    3.2774    2.6358 C   0  0  0  0  0  0  0  0  0  0  0  0
    0.3681    2.1549    2.1156 C   0  0  0  0  0  0  0  0  0  0  0  0
    1.6321    2.2926    1.4727 C   0  0  0  0  0  0  0  0  0  0  0  0
    2.0514    3.6388    1.1777 C   0  0  0  0  0  0  0  0  0  0  0  0
    1.2875    4.7544    1.5890 C   0  0  0  0  0  0  0  0  0  0  0  0
    0.1836    4.5772    2.3861 C   0  0  0  0  0  0  0  0  0  0  0  0
    2.5812    1.2383    1.2473 C   0  0  0  0  0  0  0  0  0  0  0  0
    3.8792    1.6641    0.8796 C   0  0  1  0  0  0  0  0  0  0  0  0
    4.1143    3.0005    0.4378 C   0  0  0  0  0  0  0  0  0  0  0  0
    3.1923    3.9451    0.5623 N   0  0  0  0  0  0  0  0  0  0  0  0
    2.4493   -0.1773    1.5040 C   0  0  0  0  0  0  0  0  0  0  0  0
    3.6728   -0.8445    1.8811 C   0  0  0  0  0  0  0  0  0  0  0  0
    4.8869   -0.3705    1.6272 N   0  0  0  0  0  0  0  0  0  0  0  0
    5.0010    0.7933    0.9953 C   0  0  0  0  0  0  0  0  0  0  0  0
    6.2659    1.1946    0.5268 C   0  0  0  0  0  0  0  0  0  0  0  0
    6.4330    2.4479   -0.0479 C   0  0  0  0  0  0  0  0  0  0  0  0
    5.3771    3.3476   -0.0842 C   0  0  0  0  0  0  0  0  0  0  0  0
    1.3236   -1.0293    1.3188 C   0  0  0  0  0  0  0  0  0  0  0  0
    1.3658   -2.3307    1.8144 C   0  0  0  0  0  0  0  0  0  0  0  0
    2.4867   -2.8612    2.4587 C   0  0  0  0  0  0  0  0  0  0  0  0
    3.6525   -2.1385    2.4505 C   0  0  0  0  0  0  0  0  0  0  0  0
   -0.2318    0.9833    2.2897 O   0  0  0  0  0  0  0  0  0  0  0  0
   -0.5713    5.7279    2.9544 C   0  0  0  0  0  0  0  0  0  0  0  0
    2.4701   -4.2106    3.0877 C   0  0  0  0  0  0  0  0  0  0  0  0
    7.7466    2.8867   -0.5969 C   0  0  0  0  0  0  0  0  0  0  0  0
   -2.2144   -2.7775    1.8675 C   0  0  0  0  0  0  0  0  0  0  0  0
   -2.5194   -1.5377    1.3110 C   0  0  0  0  0  0  0  0  0  0  0  0
   -3.4788   -1.4556    0.2604 C   0  0  0  0  0  0  0  0  0  0  0  0
   -3.9228   -2.7018   -0.3055 C   0  0  0  0  0  0  0  0  0  0  0  0
   -3.4343   -3.9391    0.1693 C   0  0  0  0  0  0  0  0  0  0  0  0
   -2.6573   -3.9779    1.3008 C   0  0  0  0  0  0  0  0  0  0  0  0
   -4.1772   -0.2656   -0.1346 C   0  0  0  0  0  0  0  0  0  0  0  0
   -5.3679   -0.4819   -0.8664 C   0  0  1  0  0  0  0  0  0  0  0  0
   -5.6305   -1.7441   -1.4770 C   0  0  0  0  0  0  0  0  0  0  0  0
   -4.8715   -2.8054   -1.2362 N   0  0  0  0  0  0  0  0  0  0  0  0
   -3.9067    1.1138    0.1959 C   0  0  0  0  0  0  0  0  0  0  0  0
   -5.0645    1.9731    0.2382 C   0  0  0  0  0  0  0  0  0  0  0  0
   -6.2435    1.6717   -0.2940 N   0  0  0  0  0  0  0  0  0  0  0  0
   -6.3582    0.5368   -0.9781 C   0  0  0  0  0  0  0  0  0  0  0  0
   -7.5009    0.3254   -1.7686 C   0  0  0  0  0  0  0  0  0  0  0  0
   -7.6679   -0.8661   -2.4649 C   0  0  0  0  0  0  0  0  0  0  0  0
   -6.7498   -1.8949   -2.3226 C   0  0  0  0  0  0  0  0  0  0  0  0
   -2.6454    1.7598    0.3040 C   0  0  0  0  0  0  0  0  0  0  0  0
   -2.6080    3.1241    0.5904 C   0  0  0  0  0  0  0  0  0  0  0  0
   -3.7467    3.8651    0.9112 C   0  0  0  0  0  0  0  0  0  0  0  0
   -4.9804    3.2936    0.7436 C   0  0  0  0  0  0  0  0  0  0  0  0
   -1.9436   -0.4692    1.8487 O   0  0  0  0  0  0  0  0  0  0  0  0
   -2.2961   -5.2621    1.9521 C   0  0  0  0  0  0  0  0  0  0  0  0
   -3.5709    5.2724    1.3633 C   0  0  0  0  0  0  0  0  0  0  0  0
   -8.8708   -1.0058   -3.3320 C   0  0  0  0  0  0  0  0  0  0  0  0
   -0.8524    0.2464    1.1928 B   0  0  2  0  0  0  0  0  0  0  0  0
    7.9447    3.9670   -1.0929 O   0  0  0  0  0  0  0  0  0  0  0  0
    8.6871    1.9425   -0.4828 O   0  0  0  0  0  0  0  0  0  0  0  0
    9.9715    2.2836   -0.9833 C   0  0  0  0  0  0  0  0  0  0  0  0
    1.2582   -4.7657    3.0525 O   0  0  0  0  0  0  0  0  0  0  0  0
    1.1156   -6.0241    3.6980 C   0  0  0  0  0  0  0  0  0  0  0  0
    3.4372   -4.7314    3.5848 O   0  0  0  0  0  0  0  0  0  0  0  0
   -1.8989   -5.3666    3.0863 O   0  0  0  0  0  0  0  0  0  0  0  0
   -2.4825   -6.3092    1.1386 O   0  0  0  0  0  0  0  0  0  0  0  0
   -2.1974   -7.5892    1.6823 C   0  0  0  0  0  0  0  0  0  0  0  0
   -9.7095   -0.1510   -3.4665 O   0  0  0  0  0  0  0  0  0  0  0  0
   -8.9142   -2.1880   -3.9571 O   0  0  0  0  0  0  0  0  0  0  0  0
  -10.0304   -2.3982   -4.8096 C   0  0  0  0  0  0  0  0  0  0  0  0
   -2.6307    5.9673    1.0627 O   0  0  0  0  0  0  0  0  0  0  0  0
   -4.5792    5.6605    2.1376 O   0  0  0  0  0  0  0  0  0  0  0  0
   -4.4684    6.9495    2.7253 C   0  0  0  0  0  0  0  0  0  0  0  0
   -1.5240    5.6189    3.6884 O   0  0  0  0  0  0  0  0  0  0  0  0
   -0.0449    6.8928    2.5811 O   0  0  0  0  0  0  0  0  0  0  0  0
   -0.7181    8.0677    3.0031 C   0  0  0  0  0  0  0  0  0  0  0  0
    0.2182   -0.6513    0.5672 N   0  0  0  0  0  0  0  0  0  0  0  0
    0.9979   -1.7682   -1.4866 C   0  0  0  0  0  0  0  0  0  0  0  0
   -0.1522   -1.5516   -0.5030 C   0  0  0  0  0  0  0  0  0  0  0  0
   -1.4450    1.1060    0.0581 N   0  0  0  0  0  0  0  0  0  0  0  0
   -1.1773    1.9159   -2.2417 C   0  0  0  0  0  0  0  0  0  0  0  0
   -0.5419    1.7663   -0.8606 C   0  0  0  0  0  0  0  0  0  0  0  0
   -2.6329   -8.3146    0.9998 H   0  0  0  0  0  0  0  0  0  0  0  0
   -2.6346   -7.6857    2.6781 H   0  0  0  0  0  0  0  0  0  0  0  0
   -1.1178   -7.7377    1.7535 H   0  0  0  0  0  0  0  0  0  0  0  0
    0.0468   -6.1580    3.8464 H   0  0  0  0  0  0  0  0  0  0  0  0
    1.6461   -6.0202    4.6517 H   0  0  0  0  0  0  0  0  0  0  0  0
    1.5282   -6.8163    3.0688 H   0  0  0  0  0  0  0  0  0  0  0  0
   10.6062    1.4197   -0.8047 H   0  0  0  0  0  0  0  0  0  0  0  0
   10.3605    3.1612   -0.4629 H   0  0  0  0  0  0  0  0  0  0  0  0
    9.9157    2.5062   -2.0509 H   0  0  0  0  0  0  0  0  0  0  0  0
    0.6586   -2.3921   -2.3092 H   0  0  0  0  0  0  0  0  0  0  0  0
    1.8370   -2.2600   -0.9996 H   0  0  0  0  0  0  0  0  0  0  0  0
    1.3404   -0.8175   -1.8887 H   0  0  0  0  0  0  0  0  0  0  0  0
   -0.4877   -2.5296   -0.1314 H   0  0  0  0  0  0  0  0  0  0  0  0
   -0.9968   -1.0875   -1.0165 H   0  0  0  0  0  0  0  0  0  0  0  0
   -0.4527    2.3355   -2.9345 H   0  0  0  0  0  0  0  0  0  0  0  0
   -2.0403    2.5764   -2.1991 H   0  0  0  0  0  0  0  0  0  0  0  0
   -1.5005    0.9468   -2.6155 H   0  0  0  0  0  0  0  0  0  0  0  0
   -0.2210    2.7560   -0.5071 H   0  0  0  0  0  0  0  0  0  0  0  0
    0.3491    1.1391   -0.9227 H   0  0  0  0  0  0  0  0  0  0  0  0
   -3.6470    6.9488    3.4442 H   0  0  0  0  0  0  0  0  0  0  0  0
   -5.4148    7.1370    3.2258 H   0  0  0  0  0  0  0  0  0  0  0  0
   -4.2827    7.7040    1.9577 H   0  0  0  0  0  0  0  0  0  0  0  0
   -9.8540   -3.3448   -5.3138 H   0  0  0  0  0  0  0  0  0  0  0  0
  -10.1140   -1.5844   -5.5328 H   0  0  0  0  0  0  0  0  0  0  0  0
  -10.9510   -2.4419   -4.2239 H   0  0  0  0  0  0  0  0  0  0  0  0
   -1.5822    8.2400    2.3587 H   0  0  0  0  0  0  0  0  0  0  0  0
   -0.0053    8.8832    2.9059 H   0  0  0  0  0  0  0  0  0  0  0  0
   -1.0499    7.9667    4.0388 H   0  0  0  0  0  0  0  0  0  0  0  0
   -8.2429    1.1047   -1.8400 H   0  0  0  0  0  0  0  0  0  0  0  0
   -6.8864   -2.8394   -2.8225 H   0  0  0  0  0  0  0  0  0  0  0  0
   -5.8966    3.8455    0.8695 H   0  0  0  0  0  0  0  0  0  0  0  0
   -3.7858   -4.8352   -0.3136 H   0  0  0  0  0  0  0  0  0  0  0  0
    4.5769   -2.5574    2.8136 H   0  0  0  0  0  0  0  0  0  0  0  0
    7.0920    0.5109    0.6288 H   0  0  0  0  0  0  0  0  0  0  0  0
    5.5226    4.3397   -0.4816 H   0  0  0  0  0  0  0  0  0  0  0  0
    1.6479    5.7333    1.3225 H   0  0  0  0  0  0  0  0  0  0  0  0
   -1.1710    3.1297    3.2123 H   0  0  0  0  0  0  0  0  0  0  0  0
   -1.5915   -2.8022    2.7488 H   0  0  0  0  0  0  0  0  0  0  0  0
    0.4856   -2.9463    1.7273 H   0  0  0  0  0  0  0  0  0  0  0  0
   -1.6611    3.6361    0.6363 H   0  0  0  0  0  0  0  0  0  0  0  0
   -0.2702    3.2774   11.6358 C   0  0  0  0  0  0  0  0  0  0  0  0
    0.3681    2.1549   11.1156 C   0  0  0  0  0  0  0  0  0  0  0  0
    1.6321    2.2926   10.4727 C   0  0  0  0  0  0  0  0  0  0  0  0
    2.0514    3.6388   10.1777 C   0  0  0  0  0  0  0  0  0  0  0  0
    1.2875    4.7544   10.5890 C   0  0  0  0  0  0  0  0  0  0  0  0
    0.1836    4.5772   11.3861 C   0  0  0  0  0  0  0  0  0  0  0  0
    2.5812    1.2383   10.2473 C   0  0  0  0  0  0  0  0  0  0  0  0
    3.8792    1.6641    9.8796 C   0  0  1  0  0  0  0  0  0  0  0  0
    4.1143    3.0005    9.4378 C   0  0  0  0  0  0  0  0  0  0  0  0
    3.1923    3.9451    9.5623 N   0  0  0  0  0  0  0  0  0  0  0  0
    2.4493   -0.1773   10.5040 C   0  0  0  0  0  0  0  0  0  0  0  0
    3.6728   -0.8445   10.8811 C   0  0  0  0  0  0  0  0  0  0  0  0
    4.8869   -0.3705   10.6272 N   0  0  0  0  0  0  0  0  0  0  0  0
    5.0010    0.7933    9.9953 C   0  0  0  0  0  0  0  0  0  0  0  0
    6.2659    1.1946    9.5268 C   0  0  0  0  0  0  0  0  0  0  0  0
    6.4330    2.4479    8.9521 C   0  0  0  0  0  0  0  0  0  0  0  0
    5.3771    3.3476    8.9158 C   0  0  0  0  0  0  0  0  0  0  0  0
    1.3236   -1.0293   10.3188 C   0  0  0  0  0  0  0  0  0  0  0  0
    1.3658   -2.3307   10.8144 C   0  0  0  0  0  0  0  0  0  0  0  0
    2.4867   -2.8612   11.4587 C   0  0  0  0  0  0  0  0  0  0  0  0
    3.6525   -2.1385   11.4505 C   0  0  0  0  0  0  0  0  0  0  0  0
   -0.2318    0.9833   11.2897 O   0  0  0  0  0  0  0  0  0  0  0  0
   -0.5713    5.7279   11.9544 C   0  0  0  0  0  0  0  0  0  0  0  0
    2.4701   -4.2106   12.0877 C   0  0  0  0  0  0  0  0  0  0  0  0
    7.7466    2.8867    8.4031 C   0  0  0  0  0  0  0  0  0  0  0  0
   -2.2144   -2.7775   10.8675 C   0  0  0  0  0  0  0  0  0  0  0  0
   -2.5194   -1.5377   10.3110 C   0  0  0  0  0  0  0  0  0  0  0  0
   -3.4788   -1.4556    9.2604 C   0  0  0  0  0  0  0  0  0  0  0  0
   -3.9228   -2.7018    8.6945 C   0  0  0  0  0  0  0  0  0  0  0  0
   -3.4343   -3.9391    9.1693 C   0  0  0  0  0  0  0  0  0  0  0  0
   -2.6573   -3.9779   10.3008 C   0  0  0  0  0  0  0  0  0  0  0  0
   -4.1772   -0.2656    8.8654 C   0  0  0  0  0  0  0  0  0  0  0  0
   -5.3679   -0.4819    8.1336 C   0  0  1  0  0  0  0  0  0  0  0  0
   -5.6305   -1.7441    7.5230 C   0  0  0  0  0  0  0  0  0  0  0  0
   -4.8715   -2.8054    7.7638 N   0  0  0  0  0  0  0  0  0  0  0  0
   -3.9067    1.1138    9.1959 C   0  0  0  0  0  0  0  0  0  0  0  0
   -5.0645    1.9731    9.2382 C   0  0  0  0  0  0  0  0  0  0  0  0
   -6.2435    1.6717    8.7060 N   0  0  0  0  0  0  0  0  0  0  0  0
   -6.3582    0.5368    8.0219 C   0  0  0  0  0  0  0  0  0  0  0  0
   -7.5009    0.3254    7.2314 C   0  0  0  0  0  0  0  0  0  0  0  0
   -7.6679   -0.8661    6.5351 C   0  0  0  0  0  0  0  0  0  0  0  0
   -6.7498   -1.8949    6.6774 C   0  0  0  0  0  0  0  0  0  0  0  0
   -2.6454    1.7598    9.3040 C   0  0  0  0  0  0  0  0  0  0  0  0
   -2.6080    3.1241    9.5904 C   0  0  0  0  0  0  0  0  0  0  0  0
   -3.7467    3.8651    9.9112 C   0  0  0  0  0  0  0  0  0  0  0  0
   -4.9804    3.2936    9.7436 C   0  0  0  0  0  0  0  0  0  0  0  0
   -1.9436   -0.4692   10.8487 O   0  0  0  0  0  0  0  0  0  0  0  0
   -2.2961   -5.2621   10.9521 C   0  0  0  0  0  0  0  0  0  0  0  0
   -3.5709    5.2724   10.3633 C   0  0  0  0  0  0  0  0  0  0  0  0
   -8.8708   -1.0058    5.6680 C   0  0  0  0  0  0  0  0  0  0  0  0
   -0.8524    0.2464   10.1928 B   0  0  2  0  0  0  0  0  0  0  0  0
    7.9447    3.9670    7.9071 O   0  0  0  0  0  0  0  0  0  0  0  0
    8.6871    1.9425    8.5172 O   0  0  0  0  0  0  0  0  0  0  0  0
    9.9715    2.2836    8.0167 C   0  0  0  0  0  0  0  0  0  0  0  0
    1.2582   -4.7657   12.0525 O   0  0  0  0  0  0  0  0  0  0  0  0
    1.1156   -6.0241   12.6980 C   0  0  0  0  0  0  0  0  0  0  0  0
    3.4372   -4.7314   12.5848 O   0  0  0  0  0  0  0  0  0  0  0  0
   -1.8989   -5.3666   12.0863 O   0  0  0  0  0  0  0  0  0  0  0  0
   -2.4825   -6.3092   10.1386 O   0  0  0  0  0  0  0  0  0  0  0  0
   -2.1974   -7.5892   10.6823 C   0  0  0  0  0  0  0  0  0  0  0  0
   -9.7095   -0.1510    5.5335 O   0  0  0  0  0  0  0  0  0  0  0  0
   -8.9142   -2.1880    5.0429 O   0  0  0  0  0  0  0  0  0  0  0  0
  -10.0304   -2.3982    4.1904 C   0  0  0  0  0  0  0  0  0  0  0  0
   -2.6307    5.9673   10.0627 O   0  0  0  0  0  0  0  0  0  0  0  0
   -4.5792    5.6605   11.1376 O   0  0  0  0  0  0  0  0  0  0  0  0
   -4.4684    6.9495   11.7253 C   0  0  0  0  0  0  0  0  0  0  0  0
   -1.5240    5.6189   12.6884 O   0  0  0  0  0  0  0  0  0  0  0  0
   -0.0449    6.8928   11.5811 O   0  0  0  0  0  0  0  0  0  0  0  0
   -0.7181    8.0677   12.0031 C   0  0  0  0  0  0  0  0  0  0  0  0
    0.2182   -0.6513    9.5672 N   0  0  0  0  0  0  0  0  0  0  0  0
    0.9979   -1.7682    7.5134 C   0  0  0  0  0  0  0  0  0  0  0  0
   -0.1522   -1.5516    8.4970 C   0  0  0  0  0  0  0  0  0  0  0  0
   -1.4450    1.1060    9.0581 N   0  0  0  0  0  0  0  0  0  0  0  0
   -1.1773    1.9159    6.7583 C   0  0  0  0  0  0  0  0  0  0  0  0
   -0.5419    1.7663    8.1394 C   0  0  0  0  0  0  0  0  0  0  0  0
   -2.6329   -8.3146    9.9998 H   0  0  0  0  0  0  0  0  0  0  0  0
   -2.6346   -7.6857   11.6781 H   0  0  0  0  0  0  0  0  0  0  0  0
   -1.1178   -7.7377   10.7535 H   0  0  0  0  0  0  0  0  0  0  0  0
    0.0468   -6.1580   12.8464 H   0  0  0  0  0  0  0  0  0  0  0  0
    1.6461   -6.0202   13.6517 H   0  0  0  0  0  0  0  0  0  0  0  0
    1.5282   -6.8163   12.0688 H   0  0  0  0  0  0  0  0  0  0  0  0
   10.6062    1.4197    8.1953 H   0  0  0  0  0  0  0  0  0  0  0  0
   10.3605    3.1612    8.5371 H   0  0  0  0  0  0  0  0  0  0  0  0
    9.9157    2.5062    6.9491 H   0  0  0  0  0  0  0  0  0  0  0  0
    0.6586   -2.3921    6.6908 H   0  0  0  0  0  0  0  0  0  0  0  0
    1.8370   -2.2600    8.0004 H   0  0  0  0  0  0  0  0  0  0  0  0
    1.3404   -0.8175    7.1113 H   0  0  0  0  0  0  0  0  0  0  0  0
   -0.4877   -2.5296    8.8686 H   0  0  0  0  0  0  0  0  0  0  0  0
   -0.9968   -1.0875    7.9835 H   0  0  0  0  0  0  0  0  0  0  0  0
   -0.4527    2.3355    6.0655 H   0  0  0  0  0  0  0  0  0  0  0  0
   -2.0403    2.5764    6.8009 H   0  0  0  0  0  0  0  0  0  0  0  0
   -1.5005    0.9468    6.3845 H   0  0  0  0  0  0  0  0  0  0  0  0
   -0.2210    2.7560    8.4929 H   0  0  0  0  0  0  0  0  0  0  0  0
    0.3491    1.1391    8.0773 H   0  0  0  0  0  0  0  0  0  0  0  0
   -3.6470    6.9488   12.4442 H   0  0  0  0  0  0  0  0  0  0  0  0
   -5.4148    7.1370   12.2258 H   0  0  0  0  0  0  0  0  0  0  0  0
   -4.2827    7.7040   10.9577 H   0  0  0  0  0  0  0  0  0  0  0  0
   -9.8540   -3.3448    3.6862 H   0  0  0  0  0  0  0  0  0  0  0  0
  -10.1140   -1.5844    3.4672 H   0  0  0  0  0  0  0  0  0  0  0  0
  -10.9510   -2.4419    4.7761 H   0  0  0  0  0  0  0  0  0  0  0  0
   -1.5822    8.2400   11.3587 H   0  0  0  0  0  0  0  0  0  0  0  0
   -0.0053    8.8832   11.9059 H   0  0  0  0  0  0  0  0  0  0  0  0
   -1.0499    7.9667   13.0388 H   0  0  0  0  0  0  0  0  0  0  0  0
   -8.2429    1.1047    7.1600 H   0  0  0  0  0  0  0  0  0  0  0  0
   -6.8864   -2.8394    6.1775 H   0  0  0  0  0  0  0  0  0  0  0  0
   -5.8966    3.8455    9.8695 H   0  0  0  0  0  0  0  0  0  0  0  0
   -3.7858   -4.8352    8.6864 H   0  0  0  0  0  0  0  0  0  0  0  0
    4.5769   -2.5574   11.8136 H   0  0  0  0  0  0  0  0  0  0  0  0
    7.0920    0.5109    9.6288 H   0  0  0  0  0  0  0  0  0  0  0  0
    5.5226    4.3397    8.5184 H   0  0  0  0  0  0  0  0  0  0  0  0
    1.6479    5.7333   10.3225 H   0  0  0  0  0  0  0  0  0  0  0  0
   -1.1710    3.1297   12.2123 H   0  0  0  0  0  0  0  0  0  0  0  0
   -1.5915   -2.8022   11.7488 H   0  0  0  0  0  0  0  0  0  0  0  0
    0.4856   -2.9463   10.7273 H   0  0  0  0  0  0  0  0  0  0  0  0
   -1.6611    3.6361    9.6363 H   0  0  0  0  0  0  0  0  0  0  0  0
  1  2  2  0  0  0  0
  1112  1  0  0  0  0
  2  3  1  0  0  0  0
  3  4  2  0  0  0  0
  3  7  1  0  0  0  0
  4  5  1  0  0  0  0
  5  6  2  0  0  0  0
  5111  1  0  0  0  0
  6  1  1  0  0  0  0
  6 23  1  0  0  0  0
  7 11  2  0  0  0  0
  8  7  1  1  0  0  0
  8  9  1  0  0  0  0
  9 10  2  0  0  0  0
 10  4  1  0  0  0  0
 11 12  1  0  0  0  0
 11 18  1  0  0  0  0
 12 13  2  0  0  0  0
 13 14  1  0  0  0  0
 14  8  1  0  0  0  0
 14 15  2  0  0  0  0
 15 16  1  0  0  0  0
 15109  1  0  0  0  0
 16 17  2  0  0  0  0
 16 25  1  0  0  0  0
 17  9  1  0  0  0  0
 17110  1  0  0  0  0
 18 70  1  0  0  0  0
 18 19  2  0  0  0  0
 19 20  1  0  0  0  0
 19114  1  0  0  0  0
 20 21  2  0  0  0  0
 20 24  1  0  0  0  0
 21 12  1  0  0  0  0
 21108  1  0  0  0  0
 22  2  1  0  0  0  0
 23 67  2  0  0  0  0
 23 68  1  0  0  0  0
 24 55  1  0  0  0  0
 24 57  2  0  0  0  0
 25 52  2  0  0  0  0
 25 53  1  0  0  0  0
 26 27  2  0  0  0  0
 26113  1  0  0  0  0
 27 28  1  0  0  0  0
 27 47  1  0  0  0  0
 28 29  2  0  0  0  0
 28 32  1  0  0  0  0
 29 30  1  0  0  0  0
 30 31  2  0  0  0  0
 30107  1  0  0  0  0
 31 26  1  0  0  0  0
 31 48  1  0  0  0  0
 32 36  2  0  0  0  0
 33 32  1  1  0  0  0
 33 34  1  0  0  0  0
 34 35  2  0  0  0  0
 35 29  1  0  0  0  0
 36 37  1  0  0  0  0
 36 43  1  0  0  0  0
 37 38  2  0  0  0  0
 38 39  1  0  0  0  0
 39 33  1  0  0  0  0
 39 40  2  0  0  0  0
 40 41  1  0  0  0  0
 40104  1  0  0  0  0
 41 42  2  0  0  0  0
 41 50  1  0  0  0  0
 42 34  1  0  0  0  0
 42105  1  0  0  0  0
 43 73  1  0  0  0  0
 43 44  2  0  0  0  0
 44 45  1  0  0  0  0
 44115  1  0  0  0  0
 45 46  2  0  0  0  0
 45 49  1  0  0  0  0
 46 37  1  0  0  0  0
 46106  1  0  0  0  0
 48 58  2  0  0  0  0
 48 59  1  0  0  0  0
 49 64  2  0  0  0  0
 49 65  1  0  0  0  0
 50 61  2  0  0  0  0
 50 62  1  0  0  0  0
 51 70  1  0  0  0  0
 51 73  1  0  0  0  0
 51 22  1  1  0  0  0
 51 47  1  0  0  0  0
 53 54  1  0  0  0  0
 54 82  1  0  0  0  0
 54 83  1  0  0  0  0
 54 84  1  0  0  0  0
 55 56  1  0  0  0  0
 56 79  1  0  0  0  0
 56 80  1  0  0  0  0
 56 81  1  0  0  0  0
 59 60  1  0  0  0  0
 60 76  1  0  0  0  0
 60 77  1  0  0  0  0
 60 78  1  0  0  0  0
 62 63  1  0  0  0  0
 63 98  1  0  0  0  0
 63 99  1  0  0  0  0
 63100  1  0  0  0  0
 65 66  1  0  0  0  0
 66 95  1  0  0  0  0
 66 96  1  0  0  0  0
 66 97  1  0  0  0  0
 68 69  1  0  0  0  0
 69101  1  0  0  0  0
 69102  1  0  0  0  0
 69103  1  0  0  0  0
 70 72  1  0  0  0  0
 71 72  1  0  0  0  0
 71 85  1  0  0  0  0
 71 86  1  0  0  0  0
 71 87  1  0  0  0  0
 72 88  1  0  0  0  0
 72 89  1  0  0  0  0
 73 75  1  0  0  0  0
 74 75  1  0  0  0  0
 74 90  1  0  0  0  0
 74 91  1  0  0  0  0
 74 92  1  0  0  0  0
 75 93  1  0  0  0  0
 75 94  1  0  0  0  0
116117  2  0  0  0  0
116227  1  0  0  0  0
117118  1  0  0  0  0
118119  2  0  0  0  0
118122  1  0  0  0  0
119120  1  0  0  0  0
120121  2  0  0  0  0
120226  1  0  0  0  0
121116  1  0  0  0  0
121138  1  0  0  0  0
122126  2  0  0  0  0
123122  1  1  0  0  0
123124  1  0  0  0  0
124125  2  0  0  0  0
125119  1  0  0  0  0
126127  1  0  0  0  0
126133  1  0  0  0  0
127128  2  0  0  0  0
128129  1  0  0  0  0
129123  1  0  0  0  0
129130  2  0  0  0  0
130131  1  0  0  0  0
130224  1  0  0  0  0
131132  2  0  0  0  0
131140  1  0  0  0  0
132124  1  0  0  0  0
132225  1  0  0  0  0
133185  1  0  0  0  0
133134  2  0  0  0  0
134135  1  0  0  0  0
134229  1  0  0  0  0
135136  2  0  0  0  0
135139  1  0  0  0  0
136127  1  0  0  0  0
136223  1  0  0  0  0
137117  1  0  0  0  0
138182  2  0  0  0  0
138183  1  0  0  0  0
139170  1  0  0  0  0
139172  2  0  0  0  0
140167  2  0  0  0  0
140168  1  0  0  0  0
141142  2  0  0  0  0
141228  1  0  0  0  0
142143  1  0  0  0  0
142162  1  0  0  0  0
143144  2  0  0  0  0
143147  1  0  0  0  0
144145  1  0  0  0  0
145146  2  0  0  0  0
145222  1  0  0  0  0
146141  1  0  0  0  0
146163  1  0  0  0  0
147151  2  0  0  0  0
148147  1  1  0  0  0
148149  1  0  0  0  0
149150  2  0  0  0  0
150144  1  0  0  0  0
151152  1  0  0  0  0
151158  1  0  0  0  0
152153  2  0  0  0  0
153154  1  0  0  0  0
154148  1  0  0  0  0
154155  2  0  0  0  0
155156  1  0  0  0  0
155219  1  0  0  0  0
156157  2  0  0  0  0
156165  1  0  0  0  0
157149  1  0  0  0  0
157220  1  0  0  0  0
158188  1  0  0  0  0
158159  2  0  0  0  0
159160  1  0  0  0  0
159230  1  0  0  0  0
160161  2  0  0  0  0
160164  1  0  0  0  0
161152  1  0  0  0  0
161221  1  0  0  0  0
163173  2  0  0  0  0
163174  1  0  0  0  0
164179  2  0  0  0  0
164180  1  0  0  0  0
165176  2  0  0  0  0
165177  1  0  0  0  0
166185  1  0  0  0  0
166188  1  0  0  0  0
166137  1  1  0  0  0
166162  1  0  0  0  0
168169  1  0  0  0  0
169197  1  0  0  0  0
169198  1  0  0  0  0
169199  1  0  0  0  0
170171  1  0  0  0  0
171194  1  0  0  0  0
171195  1  0  0  0  0
171196  1  0  0  0  0
174175  1  0  0  0  0
175191  1  0  0  0  0
175192  1  0  0  0  0
175193  1  0  0  0  0
177178  1  0  0  0  0
178213  1  0  0  0  0
178214  1  0  0  0  0
178215  1  0  0  0  0
180181  1  0  0  0  0
181210  1  0  0  0  0
181211  1  0  0  0  0
181212  1  0  0  0  0
183184  1  0  0  0  0
184216  1  0  0  0  0
184217  1  0  0  0  0
184218  1  0  0  0  0
185187  1  0  0  0  0
186187  1  0  0  0  0
186200  1  0  0  0  0
186201  1  0  0  0  0
186202  1  0  0  0  0
187203  1  0  0  0  0
187204  1  0  0  0  0
188190  1  0  0  0  0
189190  1  0  0  0  0
189205  1  0  0  0  0
189206  1  0  0  0  0
189207  1  0  0  0  0
190208  1  0  0  0  0
190209  1  0  0  0  0
M  END
