energy: -218.465164455420 gnorm: 0.000520723082 xtb: 6.7.1 (edcfbbe)_energy: -218.465164455420 gnorm: 0.000520723082 xtb: 6.7.1 (edcfbbe)
 OpenBabel03062513513D

230252  0  0  0  0  0  0  0  0999 V2000
    0.0430    3.3125    2.5645 C   0  0  0  0  0  0  0  0  0  0  0  0
    0.6145    2.1022    2.1886 C   0  0  0  0  0  0  0  0  0  0  0  0
    1.9575    2.0708    1.7296 C   0  0  0  0  0  0  0  0  0  0  0  0
    2.6312    3.3370    1.6010 C   0  0  0  0  0  0  0  0  0  0  0  0
    1.9307    4.5543    1.7915 C   0  0  0  0  0  0  0  0  0  0  0  0
    0.6708    4.5283    2.3092 C   0  0  0  0  0  0  0  0  0  0  0  0
    2.7382    0.8760    1.5798 C   0  0  0  0  0  0  0  0  0  0  0  0
    4.1377    1.0789    1.6231 C   0  0  1  0  0  0  0  0  0  0  0  0
    4.6928    2.3822    1.4480 C   0  0  0  0  0  0  0  0  0  0  0  0
    3.9329    3.4659    1.3632 N   0  0  0  0  0  0  0  0  0  0  0  0
    2.3121   -0.4999    1.4476 C   0  0  0  0  0  0  0  0  0  0  0  0
    3.2845   -1.4812    1.8632 C   0  0  0  0  0  0  0  0  0  0  0  0
    4.5570   -1.2198    2.1445 N   0  0  0  0  0  0  0  0  0  0  0  0
    5.0253   -0.0047    1.8825 C   0  0  0  0  0  0  0  0  0  0  0  0
    6.4181    0.2110    1.9133 C   0  0  0  0  0  0  0  0  0  0  0  0
    6.9246    1.4625    1.6274 C   0  0  0  0  0  0  0  0  0  0  0  0
    6.0958    2.5336    1.3819 C   0  0  0  0  0  0  0  0  0  0  0  0
    1.1583   -1.0022    0.7815 C   0  0  0  0  0  0  0  0  0  0  0  0
    1.0390   -2.3900    0.6009 C   0  0  0  0  0  0  0  0  0  0  0  0
    1.9064   -3.3119    1.1550 C   0  0  0  0  0  0  0  0  0  0  0  0
    3.0074   -2.8719    1.8298 C   0  0  0  0  0  0  0  0  0  0  0  0
   -0.1206    1.0011    2.3255 O   0  0  0  0  0  0  0  0  0  0  0  0
   -0.3653    6.0429    2.4201 S   0  0  1  0  0  0  0  0  0  0  0  0
    1.7751   -5.1197    0.8591 S   0  0  1  0  0  0  0  0  0  0  0  0
    8.7534    1.7104    1.6523 S   0  0  1  0  0  0  0  0  0  0  0  0
   -1.6751   -2.7308    1.6812 C   0  0  0  0  0  0  0  0  0  0  0  0
   -2.2239   -1.5409    1.2153 C   0  0  0  0  0  0  0  0  0  0  0  0
   -3.1829   -1.5588    0.1651 C   0  0  0  0  0  0  0  0  0  0  0  0
   -3.4048   -2.8265   -0.4816 C   0  0  0  0  0  0  0  0  0  0  0  0
   -2.7389   -3.9963   -0.0390 C   0  0  0  0  0  0  0  0  0  0  0  0
   -1.9363   -3.9453    1.0619 C   0  0  0  0  0  0  0  0  0  0  0  0
   -4.0395   -0.4636   -0.1965 C   0  0  0  0  0  0  0  0  0  0  0  0
   -5.1055   -0.7942   -1.0646 C   0  0  1  0  0  0  0  0  0  0  0  0
   -5.1166   -2.0362   -1.7684 C   0  0  0  0  0  0  0  0  0  0  0  0
   -4.2562   -3.0067   -1.4901 N   0  0  0  0  0  0  0  0  0  0  0  0
   -4.0594    0.8842    0.3254 C   0  0  0  0  0  0  0  0  0  0  0  0
   -5.3677    1.4962    0.3596 C   0  0  0  0  0  0  0  0  0  0  0  0
   -6.3889    1.1067   -0.3931 N   0  0  0  0  0  0  0  0  0  0  0  0
   -6.2221    0.0790   -1.2179 C   0  0  0  0  0  0  0  0  0  0  0  0
   -7.2122   -0.2073   -2.1786 C   0  0  0  0  0  0  0  0  0  0  0  0
   -7.1142   -1.3475   -2.9475 C   0  0  0  0  0  0  0  0  0  0  0  0
   -6.1019   -2.2633   -2.7556 C   0  0  0  0  0  0  0  0  0  0  0  0
   -2.9781    1.7313    0.7012 C   0  0  0  0  0  0  0  0  0  0  0  0
   -3.2618    2.9168    1.3791 C   0  0  0  0  0  0  0  0  0  0  0  0
   -4.5546    3.3268    1.6759 C   0  0  0  0  0  0  0  0  0  0  0  0
   -5.6115    2.6581    1.1349 C   0  0  0  0  0  0  0  0  0  0  0  0
   -1.8332   -0.4186    1.8103 O   0  0  0  0  0  0  0  0  0  0  0  0
   -1.1444   -5.4590    1.6990 S   0  0  1  0  0  0  0  0  0  0  0  0
   -4.8151    4.7702    2.7949 S   0  0  2  0  0  0  0  0  0  0  0  0
   -8.4162   -1.7228   -4.1989 S   0  0  2  0  0  0  0  0  0  0  0  0
   -0.8520    0.4652    1.1870 B   0  0  2  0  0  0  0  0  0  0  0  0
    8.9275    3.0351    1.0960 O   0  0  0  0  0  0  0  0  0  0  0  0
    8.8743    1.8300    3.3138 O   0  0  0  0  0  0  0  0  0  0  0  0
    8.4773    3.0474    3.8915 C   0  0  0  0  0  0  0  0  0  0  0  0
    0.3350   -5.0939   -0.0682 O   0  0  0  0  0  0  0  0  0  0  0  0
    0.4486   -5.3013   -1.4535 C   0  0  0  0  0  0  0  0  0  0  0  0
    2.8331   -5.3006   -0.1246 O   0  0  0  0  0  0  0  0  0  0  0  0
    0.0019   -4.9491    2.4561 O   0  0  0  0  0  0  0  0  0  0  0  0
   -2.3153   -5.8063    2.8268 O   0  0  0  0  0  0  0  0  0  0  0  0
   -2.3951   -5.0086    3.9820 C   0  0  0  0  0  0  0  0  0  0  0  0
   -9.2413   -0.5335   -4.2038 O   0  0  0  0  0  0  0  0  0  0  0  0
   -9.1913   -2.8871   -3.2866 O   0  0  0  0  0  0  0  0  0  0  0  0
   -9.9875   -2.4291   -2.2237 C   0  0  0  0  0  0  0  0  0  0  0  0
   -6.1133    5.2747    2.3999 O   0  0  0  0  0  0  0  0  0  0  0  0
   -3.6385    5.7604    2.1484 O   0  0  0  0  0  0  0  0  0  0  0  0
   -3.9541    6.4158    0.9451 C   0  0  0  0  0  0  0  0  0  0  0  0
    0.5691    7.1459    2.4169 O   0  0  0  0  0  0  0  0  0  0  0  0
   -0.9196    5.8556    0.8335 O   0  0  0  0  0  0  0  0  0  0  0  0
   -0.1026    6.3714   -0.1828 C   0  0  0  0  0  0  0  0  0  0  0  0
    0.1706   -0.2040    0.2284 N   0  0  0  0  0  0  0  0  0  0  0  0
    0.8516   -0.5944   -2.1033 C   0  0  0  0  0  0  0  0  0  0  0  0
   -0.2929   -0.5818   -1.0931 C   0  0  0  0  0  0  0  0  0  0  0  0
   -1.6530    1.4833    0.3590 N   0  0  0  0  0  0  0  0  0  0  0  0
   -1.6811    2.8992   -1.6626 C   0  0  0  0  0  0  0  0  0  0  0  0
   -0.9855    2.5604   -0.3424 C   0  0  0  0  0  0  0  0  0  0  0  0
   -2.8273   -5.6206    4.7732 H   0  0  0  0  0  0  0  0  0  0  0  0
   -3.0266   -4.1323    3.8061 H   0  0  0  0  0  0  0  0  0  0  0  0
   -1.3927   -4.6843    4.2759 H   0  0  0  0  0  0  0  0  0  0  0  0
   -0.0785   -6.2159   -1.7300 H   0  0  0  0  0  0  0  0  0  0  0  0
    1.5091   -5.3972   -1.7124 H   0  0  0  0  0  0  0  0  0  0  0  0
    0.0174   -4.4509   -1.9870 H   0  0  0  0  0  0  0  0  0  0  0  0
    9.0587    3.1841    4.8020 H   0  0  0  0  0  0  0  0  0  0  0  0
    7.4095    3.0315    4.1314 H   0  0  0  0  0  0  0  0  0  0  0  0
    8.6822    3.8722    3.2010 H   0  0  0  0  0  0  0  0  0  0  0  0
    0.4606   -0.7878   -3.0990 H   0  0  0  0  0  0  0  0  0  0  0  0
    1.5802   -1.3644   -1.8600 H   0  0  0  0  0  0  0  0  0  0  0  0
    1.3577    0.3683   -2.1074 H   0  0  0  0  0  0  0  0  0  0  0  0
   -0.8058   -1.5545   -1.1078 H   0  0  0  0  0  0  0  0  0  0  0  0
   -1.0376    0.1612   -1.3788 H   0  0  0  0  0  0  0  0  0  0  0  0
   -1.1309    3.6877   -2.1691 H   0  0  0  0  0  0  0  0  0  0  0  0
   -2.6959    3.2463   -1.4810 H   0  0  0  0  0  0  0  0  0  0  0  0
   -1.7268    2.0318   -2.3175 H   0  0  0  0  0  0  0  0  0  0  0  0
   -0.9399    3.4780    0.2554 H   0  0  0  0  0  0  0  0  0  0  0  0
    0.0380    2.2288   -0.5287 H   0  0  0  0  0  0  0  0  0  0  0  0
   -3.4333    7.3714    0.9441 H   0  0  0  0  0  0  0  0  0  0  0  0
   -5.0343    6.5852    0.8860 H   0  0  0  0  0  0  0  0  0  0  0  0
   -3.6294    5.8170    0.0900 H   0  0  0  0  0  0  0  0  0  0  0  0
  -10.7832   -3.1567   -2.0717 H   0  0  0  0  0  0  0  0  0  0  0  0
  -10.4255   -1.4580   -2.4774 H   0  0  0  0  0  0  0  0  0  0  0  0
   -9.3932   -2.3322   -1.3098 H   0  0  0  0  0  0  0  0  0  0  0  0
   -0.7499    6.7382   -0.9791 H   0  0  0  0  0  0  0  0  0  0  0  0
    0.5647    5.5955   -0.5724 H   0  0  0  0  0  0  0  0  0  0  0  0
    0.4981    7.1997    0.2077 H   0  0  0  0  0  0  0  0  0  0  0  0
   -8.0431    0.4691   -2.3051 H   0  0  0  0  0  0  0  0  0  0  0  0
   -6.0621   -3.1819   -3.3188 H   0  0  0  0  0  0  0  0  0  0  0  0
   -6.6208    3.0285    1.2119 H   0  0  0  0  0  0  0  0  0  0  0  0
   -2.9371   -4.9173   -0.5616 H   0  0  0  0  0  0  0  0  0  0  0  0
    3.7610   -3.5440    2.2052 H   0  0  0  0  0  0  0  0  0  0  0  0
    7.0637   -0.6200    2.1473 H   0  0  0  0  0  0  0  0  0  0  0  0
    6.5084    3.5053    1.1568 H   0  0  0  0  0  0  0  0  0  0  0  0
    2.4486    5.4817    1.6073 H   0  0  0  0  0  0  0  0  0  0  0  0
   -0.9881   -2.6865    2.5125 H   0  0  0  0  0  0  0  0  0  0  0  0
    0.2026   -2.7686    0.0409 H   0  0  0  0  0  0  0  0  0  0  0  0
   -0.9311    3.2866    3.0269 H   0  0  0  0  0  0  0  0  0  0  0  0
   -2.4484    3.5483    1.6945 H   0  0  0  0  0  0  0  0  0  0  0  0
    0.0430    3.3125   11.5645 C   0  0  0  0  0  0  0  0  0  0  0  0
    0.6145    2.1022   11.1886 C   0  0  0  0  0  0  0  0  0  0  0  0
    1.9575    2.0708   10.7296 C   0  0  0  0  0  0  0  0  0  0  0  0
    2.6312    3.3370   10.6010 C   0  0  0  0  0  0  0  0  0  0  0  0
    1.9307    4.5543   10.7915 C   0  0  0  0  0  0  0  0  0  0  0  0
    0.6708    4.5283   11.3092 C   0  0  0  0  0  0  0  0  0  0  0  0
    2.7382    0.8760   10.5798 C   0  0  0  0  0  0  0  0  0  0  0  0
    4.1377    1.0789   10.6231 C   0  0  1  0  0  0  0  0  0  0  0  0
    4.6928    2.3822   10.4480 C   0  0  0  0  0  0  0  0  0  0  0  0
    3.9329    3.4659   10.3632 N   0  0  0  0  0  0  0  0  0  0  0  0
    2.3121   -0.4999   10.4476 C   0  0  0  0  0  0  0  0  0  0  0  0
    3.2845   -1.4812   10.8632 C   0  0  0  0  0  0  0  0  0  0  0  0
    4.5570   -1.2198   11.1445 N   0  0  0  0  0  0  0  0  0  0  0  0
    5.0253   -0.0047   10.8825 C   0  0  0  0  0  0  0  0  0  0  0  0
    6.4181    0.2110   10.9133 C   0  0  0  0  0  0  0  0  0  0  0  0
    6.9246    1.4625   10.6274 C   0  0  0  0  0  0  0  0  0  0  0  0
    6.0958    2.5336   10.3819 C   0  0  0  0  0  0  0  0  0  0  0  0
    1.1583   -1.0022    9.7815 C   0  0  0  0  0  0  0  0  0  0  0  0
    1.0390   -2.3900    9.6009 C   0  0  0  0  0  0  0  0  0  0  0  0
    1.9064   -3.3119   10.1550 C   0  0  0  0  0  0  0  0  0  0  0  0
    3.0074   -2.8719   10.8298 C   0  0  0  0  0  0  0  0  0  0  0  0
   -0.1206    1.0011   11.3255 O   0  0  0  0  0  0  0  0  0  0  0  0
   -0.3653    6.0429   11.4201 S   0  0  1  0  0  0  0  0  0  0  0  0
    1.7751   -5.1197    9.8591 S   0  0  1  0  0  0  0  0  0  0  0  0
    8.7534    1.7104   10.6523 S   0  0  1  0  0  0  0  0  0  0  0  0
   -1.6751   -2.7308   10.6812 C   0  0  0  0  0  0  0  0  0  0  0  0
   -2.2239   -1.5409   10.2153 C   0  0  0  0  0  0  0  0  0  0  0  0
   -3.1829   -1.5588    9.1651 C   0  0  0  0  0  0  0  0  0  0  0  0
   -3.4048   -2.8265    8.5184 C   0  0  0  0  0  0  0  0  0  0  0  0
   -2.7389   -3.9963    8.9610 C   0  0  0  0  0  0  0  0  0  0  0  0
   -1.9363   -3.9453   10.0619 C   0  0  0  0  0  0  0  0  0  0  0  0
   -4.0395   -0.4636    8.8035 C   0  0  0  0  0  0  0  0  0  0  0  0
   -5.1055   -0.7942    7.9354 C   0  0  1  0  0  0  0  0  0  0  0  0
   -5.1166   -2.0362    7.2316 C   0  0  0  0  0  0  0  0  0  0  0  0
   -4.2562   -3.0067    7.5099 N   0  0  0  0  0  0  0  0  0  0  0  0
   -4.0594    0.8842    9.3254 C   0  0  0  0  0  0  0  0  0  0  0  0
   -5.3677    1.4962    9.3596 C   0  0  0  0  0  0  0  0  0  0  0  0
   -6.3889    1.1067    8.6069 N   0  0  0  0  0  0  0  0  0  0  0  0
   -6.2221    0.0790    7.7821 C   0  0  0  0  0  0  0  0  0  0  0  0
   -7.2122   -0.2073    6.8214 C   0  0  0  0  0  0  0  0  0  0  0  0
   -7.1142   -1.3475    6.0525 C   0  0  0  0  0  0  0  0  0  0  0  0
   -6.1019   -2.2633    6.2444 C   0  0  0  0  0  0  0  0  0  0  0  0
   -2.9781    1.7313    9.7012 C   0  0  0  0  0  0  0  0  0  0  0  0
   -3.2618    2.9168   10.3791 C   0  0  0  0  0  0  0  0  0  0  0  0
   -4.5546    3.3268   10.6759 C   0  0  0  0  0  0  0  0  0  0  0  0
   -5.6115    2.6581   10.1349 C   0  0  0  0  0  0  0  0  0  0  0  0
   -1.8332   -0.4186   10.8103 O   0  0  0  0  0  0  0  0  0  0  0  0
   -1.1444   -5.4590   10.6990 S   0  0  1  0  0  0  0  0  0  0  0  0
   -4.8151    4.7702   11.7949 S   0  0  2  0  0  0  0  0  0  0  0  0
   -8.4162   -1.7228    4.8011 S   0  0  2  0  0  0  0  0  0  0  0  0
   -0.8520    0.4652   10.1870 B   0  0  2  0  0  0  0  0  0  0  0  0
    8.9275    3.0351   10.0960 O   0  0  0  0  0  0  0  0  0  0  0  0
    8.8743    1.8300   12.3138 O   0  0  0  0  0  0  0  0  0  0  0  0
    8.4773    3.0474   12.8915 C   0  0  0  0  0  0  0  0  0  0  0  0
    0.3350   -5.0939    8.9318 O   0  0  0  0  0  0  0  0  0  0  0  0
    0.4486   -5.3013    7.5465 C   0  0  0  0  0  0  0  0  0  0  0  0
    2.8331   -5.3006    8.8754 O   0  0  0  0  0  0  0  0  0  0  0  0
    0.0019   -4.9491   11.4561 O   0  0  0  0  0  0  0  0  0  0  0  0
   -2.3153   -5.8063   11.8268 O   0  0  0  0  0  0  0  0  0  0  0  0
   -2.3951   -5.0086   12.9820 C   0  0  0  0  0  0  0  0  0  0  0  0
   -9.2413   -0.5335    4.7962 O   0  0  0  0  0  0  0  0  0  0  0  0
   -9.1913   -2.8871    5.7134 O   0  0  0  0  0  0  0  0  0  0  0  0
   -9.9875   -2.4291    6.7763 C   0  0  0  0  0  0  0  0  0  0  0  0
   -6.1133    5.2747   11.3999 O   0  0  0  0  0  0  0  0  0  0  0  0
   -3.6385    5.7604   11.1484 O   0  0  0  0  0  0  0  0  0  0  0  0
   -3.9541    6.4158    9.9451 C   0  0  0  0  0  0  0  0  0  0  0  0
    0.5691    7.1459   11.4169 O   0  0  0  0  0  0  0  0  0  0  0  0
   -0.9196    5.8556    9.8335 O   0  0  0  0  0  0  0  0  0  0  0  0
   -0.1026    6.3714    8.8172 C   0  0  0  0  0  0  0  0  0  0  0  0
    0.1706   -0.2040    9.2284 N   0  0  0  0  0  0  0  0  0  0  0  0
    0.8516   -0.5944    6.8967 C   0  0  0  0  0  0  0  0  0  0  0  0
   -0.2929   -0.5818    7.9069 C   0  0  0  0  0  0  0  0  0  0  0  0
   -1.6530    1.4833    9.3590 N   0  0  0  0  0  0  0  0  0  0  0  0
   -1.6811    2.8992    7.3374 C   0  0  0  0  0  0  0  0  0  0  0  0
   -0.9855    2.5604    8.6576 C   0  0  0  0  0  0  0  0  0  0  0  0
   -2.8273   -5.6206   13.7732 H   0  0  0  0  0  0  0  0  0  0  0  0
   -3.0266   -4.1323   12.8061 H   0  0  0  0  0  0  0  0  0  0  0  0
   -1.3927   -4.6843   13.2759 H   0  0  0  0  0  0  0  0  0  0  0  0
   -0.0785   -6.2159    7.2700 H   0  0  0  0  0  0  0  0  0  0  0  0
    1.5091   -5.3972    7.2876 H   0  0  0  0  0  0  0  0  0  0  0  0
    0.0174   -4.4509    7.0130 H   0  0  0  0  0  0  0  0  0  0  0  0
    9.0587    3.1841   13.8020 H   0  0  0  0  0  0  0  0  0  0  0  0
    7.4095    3.0315   13.1314 H   0  0  0  0  0  0  0  0  0  0  0  0
    8.6822    3.8722   12.2010 H   0  0  0  0  0  0  0  0  0  0  0  0
    0.4606   -0.7878    5.9010 H   0  0  0  0  0  0  0  0  0  0  0  0
    1.5802   -1.3644    7.1400 H   0  0  0  0  0  0  0  0  0  0  0  0
    1.3577    0.3683    6.8926 H   0  0  0  0  0  0  0  0  0  0  0  0
   -0.8058   -1.5545    7.8922 H   0  0  0  0  0  0  0  0  0  0  0  0
   -1.0376    0.1612    7.6212 H   0  0  0  0  0  0  0  0  0  0  0  0
   -1.1309    3.6877    6.8309 H   0  0  0  0  0  0  0  0  0  0  0  0
   -2.6959    3.2463    7.5190 H   0  0  0  0  0  0  0  0  0  0  0  0
   -1.7268    2.0318    6.6825 H   0  0  0  0  0  0  0  0  0  0  0  0
   -0.9399    3.4780    9.2554 H   0  0  0  0  0  0  0  0  0  0  0  0
    0.0380    2.2288    8.4713 H   0  0  0  0  0  0  0  0  0  0  0  0
   -3.4333    7.3714    9.9441 H   0  0  0  0  0  0  0  0  0  0  0  0
   -5.0343    6.5852    9.8860 H   0  0  0  0  0  0  0  0  0  0  0  0
   -3.6294    5.8170    9.0900 H   0  0  0  0  0  0  0  0  0  0  0  0
  -10.7832   -3.1567    6.9283 H   0  0  0  0  0  0  0  0  0  0  0  0
  -10.4255   -1.4580    6.5226 H   0  0  0  0  0  0  0  0  0  0  0  0
   -9.3932   -2.3322    7.6902 H   0  0  0  0  0  0  0  0  0  0  0  0
   -0.7499    6.7382    8.0209 H   0  0  0  0  0  0  0  0  0  0  0  0
    0.5647    5.5955    8.4276 H   0  0  0  0  0  0  0  0  0  0  0  0
    0.4981    7.1997    9.2077 H   0  0  0  0  0  0  0  0  0  0  0  0
   -8.0431    0.4691    6.6949 H   0  0  0  0  0  0  0  0  0  0  0  0
   -6.0621   -3.1819    5.6812 H   0  0  0  0  0  0  0  0  0  0  0  0
   -6.6208    3.0285   10.2119 H   0  0  0  0  0  0  0  0  0  0  0  0
   -2.9371   -4.9173    8.4384 H   0  0  0  0  0  0  0  0  0  0  0  0
    3.7610   -3.5440   11.2052 H   0  0  0  0  0  0  0  0  0  0  0  0
    7.0637   -0.6200   11.1473 H   0  0  0  0  0  0  0  0  0  0  0  0
    6.5084    3.5053   10.1568 H   0  0  0  0  0  0  0  0  0  0  0  0
    2.4486    5.4817   10.6073 H   0  0  0  0  0  0  0  0  0  0  0  0
   -0.9881   -2.6865   11.5125 H   0  0  0  0  0  0  0  0  0  0  0  0
    0.2026   -2.7686    9.0409 H   0  0  0  0  0  0  0  0  0  0  0  0
   -0.9311    3.2866   12.0269 H   0  0  0  0  0  0  0  0  0  0  0  0
   -2.4484    3.5483   10.6945 H   0  0  0  0  0  0  0  0  0  0  0  0
  1  2  2  0  0  0  0
  1114  1  0  0  0  0
  2  3  1  0  0  0  0
  3  4  2  0  0  0  0
  3  7  1  0  0  0  0
  4  5  1  0  0  0  0
  5  6  2  0  0  0  0
  5111  1  0  0  0  0
  6  1  1  0  0  0  0
  6 23  1  0  0  0  0
  7 11  2  0  0  0  0
  8  7  1  1  0  0  0
  8  9  1  0  0  0  0
  9 10  2  0  0  0  0
 10  4  1  0  0  0  0
 11 12  1  0  0  0  0
 11 18  1  0  0  0  0
 12 13  2  0  0  0  0
 13 14  1  0  0  0  0
 14  8  1  0  0  0  0
 14 15  2  0  0  0  0
 15 16  1  0  0  0  0
 15109  1  0  0  0  0
 16 17  2  0  0  0  0
 16 25  1  0  0  0  0
 17  9  1  0  0  0  0
 17110  1  0  0  0  0
 18 70  1  0  0  0  0
 18 19  2  0  0  0  0
 19 20  1  0  0  0  0
 19113  1  0  0  0  0
 20 21  2  0  0  0  0
 20 24  1  0  0  0  0
 21 12  1  0  0  0  0
 21108  1  0  0  0  0
 22  2  1  0  0  0  0
 23 67  2  6  0  0  0
 23 68  1  0  0  0  0
 24 55  1  0  0  0  0
 24 57  2  6  0  0  0
 25 52  2  6  0  0  0
 25 53  1  0  0  0  0
 26 27  2  0  0  0  0
 26112  1  0  0  0  0
 27 28  1  0  0  0  0
 27 47  1  0  0  0  0
 28 29  2  0  0  0  0
 28 32  1  0  0  0  0
 29 30  1  0  0  0  0
 30 31  2  0  0  0  0
 30107  1  0  0  0  0
 31 26  2  0  0  0  0
 31 48  1  0  0  0  0
 32 36  2  0  0  0  0
 33 32  1  1  0  0  0
 33 34  1  0  0  0  0
 34 35  2  0  0  0  0
 35 29  1  0  0  0  0
 36 37  1  0  0  0  0
 36 43  1  0  0  0  0
 37 38  2  0  0  0  0
 38 39  1  0  0  0  0
 39 33  1  0  0  0  0
 39 40  2  0  0  0  0
 40 41  1  0  0  0  0
 40104  1  0  0  0  0
 41 42  2  0  0  0  0
 41 50  1  0  0  0  0
 42 34  1  0  0  0  0
 42105  1  0  0  0  0
 43 73  1  0  0  0  0
 43 44  2  0  0  0  0
 44 45  1  0  0  0  0
 44115  1  0  0  0  0
 45 46  2  0  0  0  0
 45 49  1  0  0  0  0
 46 37  1  0  0  0  0
 46106  1  0  0  0  0
 48 58  2  1  0  0  0
 48 59  1  0  0  0  0
 49 64  2  6  0  0  0
 49 65  1  0  0  0  0
 50 61  2  1  0  0  0
 50 62  1  0  0  0  0
 51 70  1  0  0  0  0
 51 73  1  0  0  0  0
 51 22  1  1  0  0  0
 51 47  1  0  0  0  0
 53 54  1  0  0  0  0
 54 82  1  0  0  0  0
 54 83  1  0  0  0  0
 54 84  1  0  0  0  0
 55 56  1  0  0  0  0
 56 79  1  0  0  0  0
 56 80  1  0  0  0  0
 56 81  1  0  0  0  0
 59 60  1  0  0  0  0
 60 76  1  0  0  0  0
 60 77  1  0  0  0  0
 60 78  1  0  0  0  0
 62 63  1  0  0  0  0
 63 98  1  0  0  0  0
 63 99  1  0  0  0  0
 63100  1  0  0  0  0
 65 66  1  0  0  0  0
 66 95  1  0  0  0  0
 66 96  1  0  0  0  0
 66 97  1  0  0  0  0
 68 69  1  0  0  0  0
 69101  1  0  0  0  0
 69102  1  0  0  0  0
 69103  1  0  0  0  0
 70 72  1  0  0  0  0
 71 72  1  0  0  0  0
 71 85  1  0  0  0  0
 71 86  1  0  0  0  0
 71 87  1  0  0  0  0
 72 88  1  0  0  0  0
 72 89  1  0  0  0  0
 73 75  1  0  0  0  0
 74 75  1  0  0  0  0
 74 90  1  0  0  0  0
 74 91  1  0  0  0  0
 74 92  1  0  0  0  0
 75 93  1  0  0  0  0
 75 94  1  0  0  0  0
116117  2  0  0  0  0
116229  1  0  0  0  0
117118  1  0  0  0  0
118119  2  0  0  0  0
118122  1  0  0  0  0
119120  1  0  0  0  0
120121  2  0  0  0  0
120226  1  0  0  0  0
121116  1  0  0  0  0
121138  1  0  0  0  0
122126  2  0  0  0  0
123122  1  1  0  0  0
123124  1  0  0  0  0
124125  2  0  0  0  0
125119  1  0  0  0  0
126127  1  0  0  0  0
126133  1  0  0  0  0
127128  2  0  0  0  0
128129  1  0  0  0  0
129123  1  0  0  0  0
129130  2  0  0  0  0
130131  1  0  0  0  0
130224  1  0  0  0  0
131132  2  0  0  0  0
131140  1  0  0  0  0
132124  1  0  0  0  0
132225  1  0  0  0  0
133185  1  0  0  0  0
133134  2  0  0  0  0
134135  1  0  0  0  0
134228  1  0  0  0  0
135136  2  0  0  0  0
135139  1  0  0  0  0
136127  1  0  0  0  0
136223  1  0  0  0  0
137117  1  0  0  0  0
138182  2  6  0  0  0
138183  1  0  0  0  0
139170  1  0  0  0  0
139172  2  6  0  0  0
140167  2  6  0  0  0
140168  1  0  0  0  0
141142  2  0  0  0  0
141227  1  0  0  0  0
142143  1  0  0  0  0
142162  1  0  0  0  0
143144  2  0  0  0  0
143147  1  0  0  0  0
144145  1  0  0  0  0
145146  2  0  0  0  0
145222  1  0  0  0  0
146141  2  0  0  0  0
146163  1  0  0  0  0
147151  2  0  0  0  0
148147  1  1  0  0  0
148149  1  0  0  0  0
149150  2  0  0  0  0
150144  1  0  0  0  0
151152  1  0  0  0  0
151158  1  0  0  0  0
152153  2  0  0  0  0
153154  1  0  0  0  0
154148  1  0  0  0  0
154155  2  0  0  0  0
155156  1  0  0  0  0
155219  1  0  0  0  0
156157  2  0  0  0  0
156165  1  0  0  0  0
157149  1  0  0  0  0
157220  1  0  0  0  0
158188  1  0  0  0  0
158159  2  0  0  0  0
159160  1  0  0  0  0
159230  1  0  0  0  0
160161  2  0  0  0  0
160164  1  0  0  0  0
161152  1  0  0  0  0
161221  1  0  0  0  0
163173  2  1  0  0  0
163174  1  0  0  0  0
164179  2  6  0  0  0
164180  1  0  0  0  0
165176  2  1  0  0  0
165177  1  0  0  0  0
166185  1  0  0  0  0
166188  1  0  0  0  0
166137  1  1  0  0  0
166162  1  0  0  0  0
168169  1  0  0  0  0
169197  1  0  0  0  0
169198  1  0  0  0  0
169199  1  0  0  0  0
170171  1  0  0  0  0
171194  1  0  0  0  0
171195  1  0  0  0  0
171196  1  0  0  0  0
174175  1  0  0  0  0
175191  1  0  0  0  0
175192  1  0  0  0  0
175193  1  0  0  0  0
177178  1  0  0  0  0
178213  1  0  0  0  0
178214  1  0  0  0  0
178215  1  0  0  0  0
180181  1  0  0  0  0
181210  1  0  0  0  0
181211  1  0  0  0  0
181212  1  0  0  0  0
183184  1  0  0  0  0
184216  1  0  0  0  0
184217  1  0  0  0  0
184218  1  0  0  0  0
185187  1  0  0  0  0
186187  1  0  0  0  0
186200  1  0  0  0  0
186201  1  0  0  0  0
186202  1  0  0  0  0
187203  1  0  0  0  0
187204  1  0  0  0  0
188190  1  0  0  0  0
189190  1  0  0  0  0
189205  1  0  0  0  0
189206  1  0  0  0  0
189207  1  0  0  0  0
190208  1  0  0  0  0
190209  1  0  0  0  0
M  END
