 energy: -254.056920104507 gnorm: 0.000177466142 xtb: 6.7.1 (edcfbbe)
          03032513463D

156164  0     0  0            999 V2000
    1.2887    3.3100   -2.5027 C   0  0  0  0  0  0  0  0  0  0  0  0
    1.7482   -2.7634    1.5019 C   0  0  0  0  0  0  0  0  0  0  0  0
   -3.4628    1.3520   -2.2490 C   0  0  0  0  0  0  0  0  0  0  0  0
   -2.6877    0.6634   -1.3389 C   0  0  0  0  0  0  0  0  0  0  0  0
   -1.3258    1.0184   -1.1473 C   0  0  0  0  0  0  0  0  0  0  0  0
   -0.7290    1.9431   -2.0376 C   0  0  0  0  0  0  0  0  0  0  0  0
   -1.5249    2.6141   -2.9582 C   0  0  0  0  0  0  0  0  0  0  0  0
   -2.8885    2.3534   -3.0339 C   0  0  0  0  0  0  0  0  0  0  0  0
   -0.4995    0.3851   -0.1667 C   0  0  0  0  0  0  0  0  0  0  0  0
    0.8717    0.2460   -0.4958 C   0  0  0  0  0  0  0  0  0  0  0  0
    1.4325    1.1053   -1.4684 C   0  0  0  0  0  0  0  0  0  0  0  0
    0.6427    2.1218   -1.9840 N   0  0  0  0  0  0  0  0  0  0  0  0
   -0.9385   -0.1830    1.0606 C   0  0  0  0  0  0  0  0  0  0  0  0
   -0.1667   -1.2149    1.6537 C   0  0  0  0  0  0  0  0  0  0  0  0
    1.0634   -1.5514    1.1013 N   0  0  0  0  0  0  0  0  0  0  0  0
    1.6471   -0.7696    0.1131 C   0  0  0  0  0  0  0  0  0  0  0  0
    2.9407   -0.9747   -0.3507 C   0  0  0  0  0  0  0  0  0  0  0  0
    3.4759   -0.1482   -1.3382 C   0  0  0  0  0  0  0  0  0  0  0  0
    2.7412    0.9072   -1.8710 C   0  0  0  0  0  0  0  0  0  0  0  0
   -2.1064    0.2893    1.7216 C   0  0  0  0  0  0  0  0  0  0  0  0
   -2.6091   -0.3924    2.8064 C   0  0  0  0  0  0  0  0  0  0  0  0
   -1.9196   -1.5003    3.3018 C   0  0  0  0  0  0  0  0  0  0  0  0
   -0.6944   -1.8755    2.7580 C   0  0  0  0  0  0  0  0  0  0  0  0
   -2.6268    1.4508    1.2452 O   0  0  0  0  0  0  0  0  0  0  0  0
   -3.1314   -0.4147   -0.6342 O   0  0  0  0  0  0  0  0  0  0  0  0
   -3.6823    3.1172   -4.0103 C   0  0  0  0  0  0  0  0  0  0  0  0
   -2.5201   -2.2381    4.4216 C   0  0  0  0  0  0  0  0  0  0  0  0
    4.8192   -0.3687   -1.8960 C   0  0  0  0  0  0  0  0  0  0  0  0
    5.3378    0.3268   -2.7377 O   0  0  0  0  0  0  0  0  0  0  0  0
    5.4332   -1.4676   -1.3973 O   0  0  0  0  0  0  0  0  0  0  0  0
    6.7079   -1.7507   -1.9522 C   0  0  0  0  0  0  0  0  0  0  0  0
   -3.2403    3.9858   -4.7274 O   0  0  0  0  0  0  0  0  0  0  0  0
   -4.9806    2.7507   -4.0326 O   0  0  0  0  0  0  0  0  0  0  0  0
   -5.7971    3.4516   -4.9548 C   0  0  0  0  0  0  0  0  0  0  0  0
   -3.6543   -2.0735    4.8147 O   0  0  0  0  0  0  0  0  0  0  0  0
   -1.6782   -3.1473    4.9539 O   0  0  0  0  0  0  0  0  0  0  0  0
   -2.1463   -3.8929    6.0655 C   0  0  0  0  0  0  0  0  0  0  0  0
   -4.5059    1.1267   -2.3886 H   0  0  0  0  0  0  0  0  0  0  0  0
   -1.1262    3.3287   -3.6586 H   0  0  0  0  0  0  0  0  0  0  0  0
   -3.5159   -0.0946    3.3056 H   0  0  0  0  0  0  0  0  0  0  0  0
   -0.1995   -2.7056    3.2269 H   0  0  0  0  0  0  0  0  0  0  0  0
    3.5692   -1.7640    0.0195 H   0  0  0  0  0  0  0  0  0  0  0  0
    3.2148    1.5151   -2.6227 H   0  0  0  0  0  0  0  0  0  0  0  0
    1.4955   -3.8998    0.5062 C   0  0  0  0  0  0  0  0  0  0  0  0
    2.1830   -5.1837    0.9500 C   0  0  0  0  0  0  0  0  0  0  0  0
    2.0914    4.0231   -1.4095 C   0  0  0  0  0  0  0  0  0  0  0  0
    2.7711    5.2697   -1.9598 C   0  0  0  0  0  0  0  0  0  0  0  0
   -3.8897    1.8703    1.7099 C   0  0  0  0  0  0  0  0  0  0  0  0
   -4.4439   -0.8681   -0.8512 C   0  0  0  0  0  0  0  0  0  0  0  0
   -6.7982    3.0403   -4.8507 H   0  0  0  0  0  0  0  0  0  0  0  0
   -5.4284    3.3107   -5.9733 H   0  0  0  0  0  0  0  0  0  0  0  0
   -5.7959    4.5202   -4.7288 H   0  0  0  0  0  0  0  0  0  0  0  0
   -1.8314   -4.9265    5.9255 H   0  0  0  0  0  0  0  0  0  0  0  0
   -3.2347   -3.8320    6.1209 H   0  0  0  0  0  0  0  0  0  0  0  0
   -1.7063   -3.4830    6.9765 H   0  0  0  0  0  0  0  0  0  0  0  0
    7.0639   -2.6519   -1.4586 H   0  0  0  0  0  0  0  0  0  0  0  0
    7.3942   -0.9190   -1.7775 H   0  0  0  0  0  0  0  0  0  0  0  0
    6.6234   -1.9114   -3.0290 H   0  0  0  0  0  0  0  0  0  0  0  0
    1.4127   -3.0661    2.4901 H   0  0  0  0  0  0  0  0  0  0  0  0
    2.8174   -2.5641    1.5892 H   0  0  0  0  0  0  0  0  0  0  0  0
    1.8611   -3.6037   -0.4788 H   0  0  0  0  0  0  0  0  0  0  0  0
    0.4186   -4.0635    0.4274 H   0  0  0  0  0  0  0  0  0  0  0  0
    3.2555   -5.0287    1.0475 H   0  0  0  0  0  0  0  0  0  0  0  0
    2.0165   -5.9752    0.2242 H   0  0  0  0  0  0  0  0  0  0  0  0
    1.7924   -5.5132    1.9104 H   0  0  0  0  0  0  0  0  0  0  0  0
   -4.1665    2.7137    1.0784 H   0  0  0  0  0  0  0  0  0  0  0  0
   -3.8511    2.1989    2.7515 H   0  0  0  0  0  0  0  0  0  0  0  0
   -4.6358    1.0773    1.6095 H   0  0  0  0  0  0  0  0  0  0  0  0
   -4.5665   -1.7273   -0.1927 H   0  0  0  0  0  0  0  0  0  0  0  0
   -4.5940   -1.1804   -1.8901 H   0  0  0  0  0  0  0  0  0  0  0  0
   -5.1874   -0.1070   -0.5940 H   0  0  0  0  0  0  0  0  0  0  0  0
    3.3241    5.7767   -1.1737 H   0  0  0  0  0  0  0  0  0  0  0  0
    2.0364    5.9622   -2.3652 H   0  0  0  0  0  0  0  0  0  0  0  0
    3.4680    5.0049   -2.7514 H   0  0  0  0  0  0  0  0  0  0  0  0
    2.8419    3.3487   -0.9950 H   0  0  0  0  0  0  0  0  0  0  0  0
    1.4054    4.3006   -0.6061 H   0  0  0  0  0  0  0  0  0  0  0  0
    0.5239    3.9960   -2.8614 H   0  0  0  0  0  0  0  0  0  0  0  0
    1.9391    3.0587   -3.3468 H   0  0  0  0  0  0  0  0  0  0  0  0
    0.0156    2.6852    2.9952 C   0  0  0  0  0  0  0  0  0  0  0  0
    2.3991   -3.6673    5.6404 C   0  0  0  0  0  0  0  0  0  0  0  0
   -3.4581    1.1359    6.3499 C   0  0  0  0  0  0  0  0  0  0  0  0
   -2.4027    0.2588    6.4880 C   0  0  0  0  0  0  0  0  0  0  0  0
   -1.1755    0.5007    5.8078 C   0  0  0  0  0  0  0  0  0  0  0  0
   -1.1188    1.5317    4.8348 C   0  0  0  0  0  0  0  0  0  0  0  0
   -2.1688    2.4406    4.7702 C   0  0  0  0  0  0  0  0  0  0  0  0
   -3.3187    2.2576    5.5337 C   0  0  0  0  0  0  0  0  0  0  0  0
   -0.0183   -0.2997    6.0228 C   0  0  0  0  0  0  0  0  0  0  0  0
    0.9749   -0.3088    5.0138 C   0  0  0  0  0  0  0  0  0  0  0  0
    1.0064    0.7139    4.0337 C   0  0  0  0  0  0  0  0  0  0  0  0
   -0.0255    1.6303    3.9897 N   0  0  0  0  0  0  0  0  0  0  0  0
    0.2729   -1.0440    7.2085 C   0  0  0  0  0  0  0  0  0  0  0  0
    1.1405   -2.1571    7.1107 C   0  0  0  0  0  0  0  0  0  0  0  0
    1.8108   -2.3741    5.9184 N   0  0  0  0  0  0  0  0  0  0  0  0
    1.9658   -1.3206    5.0286 C   0  0  0  0  0  0  0  0  0  0  0  0
    3.0505   -1.2264    4.1727 C   0  0  0  0  0  0  0  0  0  0  0  0
    3.1281   -0.1638    3.2755 C   0  0  0  0  0  0  0  0  0  0  0  0
    2.1067    0.7794    3.1893 C   0  0  0  0  0  0  0  0  0  0  0  0
   -0.1950   -0.6564    8.4929 C   0  0  0  0  0  0  0  0  0  0  0  0
   -0.0176   -1.5004    9.5689 C   0  0  0  0  0  0  0  0  0  0  0  0
    0.6971   -2.6913    9.4173 C   0  0  0  0  0  0  0  0  0  0  0  0
    1.3191   -2.9905    8.2091 C   0  0  0  0  0  0  0  0  0  0  0  0
   -0.7407    0.5855    8.5827 O   0  0  0  0  0  0  0  0  0  0  0  0
   -2.4726   -0.8828    7.2182 O   0  0  0  0  0  0  0  0  0  0  0  0
   -4.3967    3.2478    5.3965 C   0  0  0  0  0  0  0  0  0  0  0  0
    0.8190   -3.5707   10.5889 C   0  0  0  0  0  0  0  0  0  0  0  0
    4.3025    0.0259    2.4091 C   0  0  0  0  0  0  0  0  0  0  0  0
    4.4624    0.9632    1.6607 O   0  0  0  0  0  0  0  0  0  0  0  0
    5.2126   -0.9598    2.5505 O   0  0  0  0  0  0  0  0  0  0  0  0
    6.3975   -0.8204    1.7823 C   0  0  0  0  0  0  0  0  0  0  0  0
   -4.4166    4.1291    4.5642 O   0  0  0  0  0  0  0  0  0  0  0  0
   -5.3863    3.0781    6.2951 O   0  0  0  0  0  0  0  0  0  0  0  0
   -6.4590    3.9997    6.2054 C   0  0  0  0  0  0  0  0  0  0  0  0
    0.3411   -3.3410   11.6771 O   0  0  0  0  0  0  0  0  0  0  0  0
    1.5251   -4.6936   10.3318 O   0  0  0  0  0  0  0  0  0  0  0  0
    1.6778   -5.5810   11.4261 C   0  0  0  0  0  0  0  0  0  0  0  0
   -4.3949    0.9812    6.8552 H   0  0  0  0  0  0  0  0  0  0  0  0
   -2.1424    3.3221    4.1535 H   0  0  0  0  0  0  0  0  0  0  0  0
   -0.4036   -1.2748   10.5492 H   0  0  0  0  0  0  0  0  0  0  0  0
    1.9470   -3.8619    8.1657 H   0  0  0  0  0  0  0  0  0  0  0  0
    3.8683   -1.9254    4.2118 H   0  0  0  0  0  0  0  0  0  0  0  0
    2.2506    1.5595    2.4625 H   0  0  0  0  0  0  0  0  0  0  0  0
    1.3337   -4.7637    5.5270 C   0  0  0  0  0  0  0  0  0  0  0  0
    1.9699   -6.1035    5.1798 C   0  0  0  0  0  0  0  0  0  0  0  0
    0.6959    3.9428    3.5425 C   0  0  0  0  0  0  0  0  0  0  0  0
    0.7895    5.0298    2.4812 C   0  0  0  0  0  0  0  0  0  0  0  0
   -1.2189    1.0186    9.8319 C   0  0  0  0  0  0  0  0  0  0  0  0
   -3.6965   -1.2106    7.8324 C   0  0  0  0  0  0  0  0  0  0  0  0
   -7.1529    3.7392    7.0007 H   0  0  0  0  0  0  0  0  0  0  0  0
   -6.9461    3.9236    5.2306 H   0  0  0  0  0  0  0  0  0  0  0  0
   -6.0945    5.0214    6.3334 H   0  0  0  0  0  0  0  0  0  0  0  0
    2.2601   -6.4223   11.0583 H   0  0  0  0  0  0  0  0  0  0  0  0
    0.7017   -5.9171   11.7833 H   0  0  0  0  0  0  0  0  0  0  0  0
    2.1974   -5.0854   12.2490 H   0  0  0  0  0  0  0  0  0  0  0  0
    7.0892   -1.5758    2.1481 H   0  0  0  0  0  0  0  0  0  0  0  0
    6.8161    0.1798    1.9095 H   0  0  0  0  0  0  0  0  0  0  0  0
    6.1774   -0.9798    0.7263 H   0  0  0  0  0  0  0  0  0  0  0  0
    3.1323   -3.9320    6.4102 H   0  0  0  0  0  0  0  0  0  0  0  0
    2.9240   -3.6099    4.6877 H   0  0  0  0  0  0  0  0  0  0  0  0
    0.6149   -4.4775    4.7573 H   0  0  0  0  0  0  0  0  0  0  0  0
    0.7886   -4.8507    6.4664 H   0  0  0  0  0  0  0  0  0  0  0  0
    2.5271   -6.0392    4.2472 H   0  0  0  0  0  0  0  0  0  0  0  0
    1.2069   -6.8701    5.0712 H   0  0  0  0  0  0  0  0  0  0  0  0
    2.6561   -6.4145    5.9645 H   0  0  0  0  0  0  0  0  0  0  0  0
   -1.6210    2.0163    9.6598 H   0  0  0  0  0  0  0  0  0  0  0  0
   -0.4148    1.0727   10.5730 H   0  0  0  0  0  0  0  0  0  0  0  0
   -2.0125    0.3668   10.2099 H   0  0  0  0  0  0  0  0  0  0  0  0
   -3.5088   -2.1292    8.3875 H   0  0  0  0  0  0  0  0  0  0  0  0
   -4.4713   -1.3870    7.0807 H   0  0  0  0  0  0  0  0  0  0  0  0
   -4.0229   -0.4306    8.5276 H   0  0  0  0  0  0  0  0  0  0  0  0
    1.2285    5.9320    2.8991 H   0  0  0  0  0  0  0  0  0  0  0  0
   -0.1976    5.2742    2.0952 H   0  0  0  0  0  0  0  0  0  0  0  0
    1.4134    4.6983    1.6544 H   0  0  0  0  0  0  0  0  0  0  0  0
    1.6970    3.6815    3.8917 H   0  0  0  0  0  0  0  0  0  0  0  0
    0.1296    4.3095    4.4010 H   0  0  0  0  0  0  0  0  0  0  0  0
   -0.9975    2.9128    2.6644 H   0  0  0  0  0  0  0  0  0  0  0  0
    0.5436    2.3220    2.1129 H   0  0  0  0  0  0  0  0  0  0  0  0
  1 46  1  0  0  0  0
  1 77  1  0  0  0  0
  1 78  1  0  0  0  0
  2 44  1  0  0  0  0
  2 59  1  0  0  0  0
  2 60  1  0  0  0  0
  3  4  2  0  0  0  0
  3 38  1  0  0  0  0
  4  5  1  0  0  0  0
  4 25  1  0  0  0  0
  5  6  2  0  0  0  0
  5  9  1  0  0  0  0
  6  7  1  0  0  0  0
  7  8  2  0  0  0  0
  7 39  1  0  0  0  0
  8  3  1  0  0  0  0
  8 26  1  0  0  0  0
  9 10  1  0  0  0  0
 10 11  2  0  0  0  0
 11 12  1  0  0  0  0
 12  1  1  0  0  0  0
 12  6  1  0  0  0  0
 13 14  2  0  0  0  0
 13 20  1  0  0  0  0
 13  9  1  0  0  0  0
 14 15  1  0  0  0  0
 15  2  1  0  0  0  0
 15 16  1  0  0  0  0
 16 10  1  0  0  0  0
 16 17  2  0  0  0  0
 17 18  1  0  0  0  0
 17 42  1  0  0  0  0
 18 19  2  0  0  0  0
 18 28  1  0  0  0  0
 19 11  1  0  0  0  0
 19 43  1  0  0  0  0
 20 21  2  0  0  0  0
 21 22  1  0  0  0  0
 21 40  1  0  0  0  0
 22 23  2  0  0  0  0
 22 27  1  0  0  0  0
 23 14  1  0  0  0  0
 23 41  1  0  0  0  0
 24 48  1  0  0  0  0
 24 20  1  0  0  0  0
 25 49  1  0  0  0  0
 26 32  2  0  0  0  0
 26 33  1  0  0  0  0
 27 35  2  0  0  0  0
 27 36  1  0  0  0  0
 28 29  2  0  0  0  0
 28 30  1  0  0  0  0
 30 31  1  0  0  0  0
 31 56  1  0  0  0  0
 31 57  1  0  0  0  0
 31 58  1  0  0  0  0
 33 34  1  0  0  0  0
 34 50  1  0  0  0  0
 34 51  1  0  0  0  0
 34 52  1  0  0  0  0
 36 37  1  0  0  0  0
 37 53  1  0  0  0  0
 37 54  1  0  0  0  0
 37 55  1  0  0  0  0
 44 45  1  0  0  0  0
 44 61  1  0  0  0  0
 44 62  1  0  0  0  0
 45 63  1  0  0  0  0
 45 64  1  0  0  0  0
 45 65  1  0  0  0  0
 46 47  1  0  0  0  0
 46 75  1  0  0  0  0
 46 76  1  0  0  0  0
 47 72  1  0  0  0  0
 47 73  1  0  0  0  0
 47 74  1  0  0  0  0
 48 66  1  0  0  0  0
 48 67  1  0  0  0  0
 48 68  1  0  0  0  0
 49 69  1  0  0  0  0
 49 70  1  0  0  0  0
 49 71  1  0  0  0  0
 79124  1  0  0  0  0
 79155  1  0  0  0  0
 79156  1  0  0  0  0
 80122  1  0  0  0  0
 80137  1  0  0  0  0
 80138  1  0  0  0  0
 81 82  2  0  0  0  0
 81116  1  0  0  0  0
 82 83  1  0  0  0  0
 82103  1  0  0  0  0
 83 84  2  0  0  0  0
 83 87  1  0  0  0  0
 84 85  1  0  0  0  0
 85 86  2  0  0  0  0
 85117  1  0  0  0  0
 86 81  1  0  0  0  0
 86104  1  0  0  0  0
 87 88  1  0  0  0  0
 88 89  2  0  0  0  0
 89 90  1  0  0  0  0
 90 79  1  0  0  0  0
 90 84  1  0  0  0  0
 91 92  2  0  0  0  0
 91 98  1  0  0  0  0
 91 87  1  0  0  0  0
 92 93  1  0  0  0  0
 93 80  1  0  0  0  0
 93 94  1  0  0  0  0
 94 88  1  0  0  0  0
 94 95  2  0  0  0  0
 95 96  1  0  0  0  0
 95120  1  0  0  0  0
 96 97  2  0  0  0  0
 96106  1  0  0  0  0
 97 89  1  0  0  0  0
 97121  1  0  0  0  0
 98 99  2  0  0  0  0
 99100  1  0  0  0  0
 99118  1  0  0  0  0
100101  2  0  0  0  0
100105  1  0  0  0  0
101 92  1  0  0  0  0
101119  1  0  0  0  0
102126  1  0  0  0  0
102 98  1  0  0  0  0
103127  1  0  0  0  0
104110  2  0  0  0  0
104111  1  0  0  0  0
105113  2  0  0  0  0
105114  1  0  0  0  0
106107  2  0  0  0  0
106108  1  0  0  0  0
108109  1  0  0  0  0
109134  1  0  0  0  0
109135  1  0  0  0  0
109136  1  0  0  0  0
111112  1  0  0  0  0
112128  1  0  0  0  0
112129  1  0  0  0  0
112130  1  0  0  0  0
114115  1  0  0  0  0
115131  1  0  0  0  0
115132  1  0  0  0  0
115133  1  0  0  0  0
122123  1  0  0  0  0
122139  1  0  0  0  0
122140  1  0  0  0  0
123141  1  0  0  0  0
123142  1  0  0  0  0
123143  1  0  0  0  0
124125  1  0  0  0  0
124153  1  0  0  0  0
124154  1  0  0  0  0
125150  1  0  0  0  0
125151  1  0  0  0  0
125152  1  0  0  0  0
126144  1  0  0  0  0
126145  1  0  0  0  0
126146  1  0  0  0  0
127147  1  0  0  0  0
127148  1  0  0  0  0
127149  1  0  0  0  0
M  END
