116
.xyz output generated from file: scoord.1
C          -2.895883127008       0.250765617837      -1.134729028221
C          -2.363043771780      -0.625923975438      -0.183024661596
C          -1.412920261181      -0.198808500947       0.773478726087
C          -0.818524511569       1.054050047361       0.460090436283
C          -1.395623670276       1.973152174408      -0.368382086168
C          -2.467517772317       1.600099275515      -1.103604380439
C          -0.819939487853      -1.008731105368       1.744162060671
C           0.503067342346      -0.776355057485       2.050037001168
C           0.993435908205       0.589242764460       1.811287088985
N           0.372038867304       1.468353052875       0.969265156398
C          -1.430966138602      -2.158021019778       2.292411665775
C          -0.613762789955      -3.124618699609       2.918951686120
N           0.763961894425      -2.874968250108       3.202407323887
C           1.223221479648      -1.702317240947       2.842167421056
C           2.485460144526      -1.293193212055       3.274877687575
C           3.027971249119      -0.114081971819       2.792298884042
C           2.325285648183       0.878263736524       2.117375520252
C          -2.839210859178      -2.236838443470       2.520336119273
C          -3.323769714236      -3.488774542331       2.995000541091
C          -2.539994407525      -4.607667268455       3.240676525092
C          -1.194227311160      -4.350482208486       3.270570960399
O          -3.633582665912      -1.162229732000       2.297454701099
O          -2.654932413127      -1.942234975013      -0.261451948970
C          -3.183694405074       2.653906448825      -1.819965452316
C          -3.157233639486      -5.866548813630       3.745322944385
H          -0.903775352983       2.899998145740      -0.485448512881
H          -3.733910238430      -0.063401330420      -1.751984939898
H           2.938886879368       1.792422631265       1.811117559732
H           3.106337762584      -1.913013154004       3.828128323403
H          -0.603087588315      -5.082731964968       3.763036260991
H          -4.411736205176      -3.682518953200       3.056552981086
O          -3.970530107449       2.544270820708      -2.718125266993
O          -2.810102489571       3.909029784554      -1.299227670355
C          -3.406848285838       4.969163376276      -2.024014617590
C           4.403907190082       0.081341594269       3.261681613465
O           4.795717568777      -0.579952477287       4.252603501432
O           5.217343108377       0.981804624689       2.625216723633
C           6.275687045925       1.244210714677       3.427445475410
O          -4.368735568380      -6.053285330772       3.573596440264
O          -2.387762467241      -6.768402019563       4.483817968785
C          -2.819527264287      -7.999536409387       4.925227228698
C          -4.969046336289      -1.261217415023       2.655796979504
C          -3.419541718728      -2.404772555244      -1.418530375289
H          -2.842282980915      -8.628592665619       4.016472375341
H          -3.843919735911      -7.858341312491       5.299073906331
H          -2.060633614129      -8.369234304019       5.726932207649
H           7.018302256153       0.360015811572       3.306004051102
H           5.885516467603       1.294856433629       4.432873475615
H           6.747879178081       2.140740809834       2.977554623882
H          -3.446791540394      -3.555085864452      -1.437268613985
H          -2.758623698459      -2.210786426247      -2.300341325967
H          -4.434893740100      -2.025813257052      -1.519537898166
H          -5.384055281732      -2.134444656088       2.107497376820
H          -5.469574989414      -0.358374591015       2.256406106220
H          -5.098594504618      -1.442345429246       3.718733020320
H          -3.623953899000       5.915119901750      -1.504049741762
H          -4.458477033473       4.612139199114      -2.270230517487
H          -2.756000383433       5.213888103708      -2.826412094099
C          -2.086407976365       4.532960982095       3.035142077328
C          -2.147410762444       3.223417681696       3.545540286986
C          -1.155577335564       2.745645504828       4.498885589397
C           0.030654181748       3.496924753271       4.667939839055
C          -0.068342733162       4.843474588035       4.213332269465
C          -1.077510828413       5.330213897791       3.367621317596
C          -1.260141587028       1.521388653040       5.175516551242
C          -0.015592620743       1.017776665191       5.514079072254
C           1.157017150653       1.838634533024       5.690275860781
N           1.234880369067       3.075281237968       5.222761100550
C          -2.293120221760       0.644543326971       5.476783281186
C          -2.081408199895      -0.761420737196       5.637490935109
N          -0.858194571544      -1.281155481445       5.819138668423
C           0.103230851978      -0.349309710188       5.845085813408
C           1.319700194350      -0.852195652938       6.312773422912
C           2.461506885544      -0.077461916663       6.478146969815
C           2.350311521114       1.269103361564       6.305121554572
C          -3.579139399802       1.154730885284       5.751176916143
C          -4.636858166604       0.274904086231       5.807236033851
C          -4.460824787322      -1.137452868868       6.004429396946
C          -3.134400758526      -1.573590506235       5.970660375906
O          -3.822569458973       2.493184484484       5.879518508686
O          -2.884782790475       2.240847855842       3.016061358205
C          -0.948739059444       6.748899023522       3.015292787983
C          -5.552225752698      -2.118390649900       6.044919145549
H           0.811227497291       5.447880381144       4.339097993115
H          -2.942733357304       4.961705522870       2.550139975171
H           3.199397535037       1.843166724537       6.453169400155
H           1.533460825974      -1.898832266401       6.310874442910
H          -2.974575828173      -2.678578469771       6.109008240834
H          -5.659172791224       0.662907753353       5.704746375421
O           0.159090580413       7.183890731056       3.234105767434
O          -1.956656113498       7.486308154223       2.451025810128
C          -1.555905489309       8.868833238801       2.456032831220
C           3.717269503872      -0.885439224644       6.722122451957
O           3.719707436312      -2.074752357728       6.493093150630
O           4.716683795371      -0.174686741210       7.289922591108
C           5.733193665764      -1.109285510067       7.267255387088
O          -6.616761323884      -1.738305538595       5.663390337070
O          -5.322476080769      -3.431258919647       6.413494286464
C          -6.562185285912      -4.124757168612       6.445736660160
C          -4.980196816831       2.962983999218       5.150017141238
C          -3.477246428146       2.497590154949       1.735106592019
H          -7.241796183199      -3.378509847236       6.802044915672
H          -6.596721775821      -5.063648093452       6.967118314362
H          -6.805252093130      -4.408436435664       5.351895789821
H           5.837220564232      -1.591264956493       6.260818802416
H           5.633770109865      -1.808559493866       8.028921571658
H           6.679667140310      -0.459304504621       7.331865871927
H          -4.298292326914       3.154485340149       1.870840816509
H          -3.900376072585       1.487687206879       1.395507429901
H          -2.785463474091       2.985776806725       1.082785731947
H          -4.882853025686       4.016175938489       4.981409988322
H          -5.951105251733       2.639563260944       5.631648453505
H          -5.015671063705       2.565765538084       4.138432947075
H          -1.924675131402       9.352910928181       3.370112873873
H          -1.724073063695       9.355324390619       1.549251636349
H          -0.396312629306       8.795236272715       2.520112759140
