 energy: -278.272537864621 gnorm: 0.000071122347 xtb: 6.7.1 (edcfbbe)
          03132511273D

 95106  0     0  0            999 V2000
    1.2431    3.4365    0.0426 C   0  0  0  0  0  0  0  0  0  0  0  0
    1.5407    2.1091    0.3866 C   0  0  0  0  0  0  0  0  0  0  0  0
    2.6805    1.5075   -0.2440 C   0  0  0  0  0  0  0  0  0  0  0  0
    3.3476    2.2769   -1.2855 C   0  0  0  0  0  0  0  0  0  0  0  0
    2.7945    3.4947   -1.7811 C   0  0  0  0  0  0  0  0  0  0  0  0
    1.7849    4.0507   -1.0717 C   0  0  0  0  0  0  0  0  0  0  0  0
    3.3591    0.2913    0.1215 C   0  0  0  0  0  0  0  0  0  0  0  0
    4.6791    0.0934   -0.3415 C   0  0  0  0  0  0  0  0  0  0  0  0
    5.2090    0.9328   -1.3579 C   0  0  0  0  0  0  0  0  0  0  0  0
    4.5068    1.9534   -1.8292 N   0  0  0  0  0  0  0  0  0  0  0  0
    2.8965   -0.7121    1.0255 C   0  0  0  0  0  0  0  0  0  0  0  0
    3.8756   -1.5294    1.7097 C   0  0  0  0  0  0  0  0  0  0  0  0
    5.1074   -1.6532    1.2671 N   0  0  0  0  0  0  0  0  0  0  0  0
    5.4964   -0.9391    0.2101 C   0  0  0  0  0  0  0  0  0  0  0  0
    6.7967   -1.1376   -0.3043 C   0  0  0  0  0  0  0  0  0  0  0  0
    7.2455   -0.3482   -1.3414 C   0  0  0  0  0  0  0  0  0  0  0  0
    6.4993    0.6687   -1.8835 C   0  0  0  0  0  0  0  0  0  0  0  0
    1.5329   -0.9283    1.2988 C   0  0  0  0  0  0  0  0  0  0  0  0
    1.2468   -1.4183    2.5774 C   0  0  0  0  0  0  0  0  0  0  0  0
    2.2093   -2.0933    3.3131 C   0  0  0  0  0  0  0  0  0  0  0  0
    3.4837   -2.2616    2.8718 C   0  0  0  0  0  0  0  0  0  0  0  0
    0.7141    1.5436    1.2826 O   0  0  0  0  0  0  0  0  0  0  0  0
    0.6228   -0.6017    0.3940 O   0  0  0  0  0  0  0  0  0  0  0  0
   -1.7893   -2.1734    1.7822 C   0  0  0  0  0  0  0  0  0  0  0  0
   -2.0167   -1.0067    1.0366 C   0  0  0  0  0  0  0  0  0  0  0  0
   -2.8545   -1.1217   -0.1226 C   0  0  0  0  0  0  0  0  0  0  0  0
   -3.2829   -2.4608   -0.5032 C   0  0  0  0  0  0  0  0  0  0  0  0
   -2.7563   -3.6212    0.1377 C   0  0  0  0  0  0  0  0  0  0  0  0
   -2.0603   -3.4344    1.2833 C   0  0  0  0  0  0  0  0  0  0  0  0
   -3.4651   -0.0646   -0.8862 C   0  0  0  0  0  0  0  0  0  0  0  0
   -4.5675   -0.3816   -1.7109 C   0  0  0  0  0  0  0  0  0  0  0  0
   -4.8798   -1.7394   -1.9888 C   0  0  0  0  0  0  0  0  0  0  0  0
   -4.1950   -2.7225   -1.4218 N   0  0  0  0  0  0  0  0  0  0  0  0
   -3.1669    1.3297   -0.8142 C   0  0  0  0  0  0  0  0  0  0  0  0
   -4.1996    2.2765   -1.1767 C   0  0  0  0  0  0  0  0  0  0  0  0
   -5.2321    1.9291   -1.9128 N   0  0  0  0  0  0  0  0  0  0  0  0
   -5.3837    0.6514   -2.2633 C   0  0  0  0  0  0  0  0  0  0  0  0
   -6.4523    0.3024   -3.1183 C   0  0  0  0  0  0  0  0  0  0  0  0
   -6.6756   -1.0238   -3.4211 C   0  0  0  0  0  0  0  0  0  0  0  0
   -5.9283   -2.0470   -2.8926 C   0  0  0  0  0  0  0  0  0  0  0  0
   -1.9216    1.8259   -0.3853 C   0  0  0  0  0  0  0  0  0  0  0  0
   -1.9570    3.0766    0.2401 C   0  0  0  0  0  0  0  0  0  0  0  0
   -3.0046    3.9565    0.0127 C   0  0  0  0  0  0  0  0  0  0  0  0
   -4.0726    3.6385   -0.7653 C   0  0  0  0  0  0  0  0  0  0  0  0
   -1.4176    0.1031    1.5008 O   0  0  0  0  0  0  0  0  0  0  0  0
   -0.8359    1.0810   -0.5251 O   0  0  0  0  0  0  0  0  0  0  0  0
   -0.2342    0.5434    0.6930 B   0  0  0  0  0  0  0  0  0  0  0  0
    0.9478    5.5966   -1.6714 S   0  0  0  0  0  0  0  0  0  0  0  0
    0.9684    6.2644   -0.1815 F   0  0  0  0  0  0  0  0  0  0  0  0
    2.3775    6.3209   -2.0309 F   0  0  0  0  0  0  0  0  0  0  0  0
    0.1792    6.8821   -2.2102 F   0  0  0  0  0  0  0  0  0  0  0  0
    0.8948    4.9783   -3.2045 F   0  0  0  0  0  0  0  0  0  0  0  0
   -0.5418    4.8849   -1.3930 F   0  0  0  0  0  0  0  0  0  0  0  0
    1.6848   -2.7672    4.9710 S   0  0  0  0  0  0  0  0  0  0  0  0
    3.2441   -2.7973    5.4982 F   0  0  0  0  0  0  0  0  0  0  0  0
    1.5417   -1.2136    5.5213 F   0  0  0  0  0  0  0  0  0  0  0  0
    1.2508   -3.2845    6.4173 F   0  0  0  0  0  0  0  0  0  0  0  0
    0.0843   -2.7258    4.5839 F   0  0  0  0  0  0  0  0  0  0  0  0
    1.8211   -4.3147    4.4755 F   0  0  0  0  0  0  0  0  0  0  0  0
    8.9497   -0.6674   -2.0271 S   0  0  0  0  0  0  0  0  0  0  0  0
    8.3761   -0.5603   -3.5632 F   0  0  0  0  0  0  0  0  0  0  0  0
    8.6709   -2.2863   -2.0318 F   0  0  0  0  0  0  0  0  0  0  0  0
   10.4012   -0.9423   -2.6157 F   0  0  0  0  0  0  0  0  0  0  0  0
    9.5690   -0.7837   -0.5114 F   0  0  0  0  0  0  0  0  0  0  0  0
    9.2762    0.9416   -2.0443 F   0  0  0  0  0  0  0  0  0  0  0  0
   -1.2715   -4.8722    2.1553 S   0  0  0  0  0  0  0  0  0  0  0  0
   -2.6154   -5.8029    1.9953 F   0  0  0  0  0  0  0  0  0  0  0  0
   -1.7873   -4.3542    3.6154 F   0  0  0  0  0  0  0  0  0  0  0  0
   -0.5351   -6.0868    2.8738 F   0  0  0  0  0  0  0  0  0  0  0  0
    0.1506   -3.9985    2.2853 F   0  0  0  0  0  0  0  0  0  0  0  0
   -0.7183   -5.4520    0.7084 F   0  0  0  0  0  0  0  0  0  0  0  0
   -2.8984    5.6255    0.8378 S   0  0  0  0  0  0  0  0  0  0  0  0
   -4.5294    5.8249    0.7371 F   0  0  0  0  0  0  0  0  0  0  0  0
   -3.0923    4.8792    2.3014 F   0  0  0  0  0  0  0  0  0  0  0  0
   -2.8356    7.0275    1.5980 F   0  0  0  0  0  0  0  0  0  0  0  0
   -1.2689    5.5165    1.0531 F   0  0  0  0  0  0  0  0  0  0  0  0
   -2.7140    6.4052   -0.5824 F   0  0  0  0  0  0  0  0  0  0  0  0
   -8.0662   -1.4458   -4.5891 S   0  0  0  0  0  0  0  0  0  0  0  0
   -7.6121   -0.2372   -5.6048 F   0  0  0  0  0  0  0  0  0  0  0  0
   -9.0724   -0.4076   -3.8120 F   0  0  0  0  0  0  0  0  0  0  0  0
   -9.2489   -1.8060   -5.5892 F   0  0  0  0  0  0  0  0  0  0  0  0
   -8.5583   -2.6674   -3.6087 F   0  0  0  0  0  0  0  0  0  0  0  0
   -7.0968   -2.4962   -5.3996 F   0  0  0  0  0  0  0  0  0  0  0  0
   -2.9837   -4.5922   -0.2697 H   0  0  0  0  0  0  0  0  0  0  0  0
   -6.1178   -3.0794   -3.1464 H   0  0  0  0  0  0  0  0  0  0  0  0
   -7.0842    1.0841   -3.5134 H   0  0  0  0  0  0  0  0  0  0  0  0
   -1.3395   -2.1009    2.7575 H   0  0  0  0  0  0  0  0  0  0  0  0
   -1.1754    3.3276    0.9322 H   0  0  0  0  0  0  0  0  0  0  0  0
    6.8687    1.2728   -2.6988 H   0  0  0  0  0  0  0  0  0  0  0  0
    0.2767   -1.2267    2.9956 H   0  0  0  0  0  0  0  0  0  0  0  0
    7.4224   -1.9017    0.1330 H   0  0  0  0  0  0  0  0  0  0  0  0
    3.2362    3.9544   -2.6495 H   0  0  0  0  0  0  0  0  0  0  0  0
    4.2097   -2.8847    3.3664 H   0  0  0  0  0  0  0  0  0  0  0  0
   -4.8322    4.3451   -1.0547 H   0  0  0  0  0  0  0  0  0  0  0  0
    0.5292    3.9895    0.6284 H   0  0  0  0  0  0  0  0  0  0  0  0
  1  2  2  0  0  0  0
  1 95  1  0  0  0  0
  2  3  1  0  0  0  0
  3  4  2  0  0  0  0
  3  7  1  0  0  0  0
  4  5  1  0  0  0  0
  5  6  2  0  0  0  0
  5 92  1  0  0  0  0
  6 48  1  0  0  0  0
  6  1  1  0  0  0  0
  7 11  2  0  0  0  0
  8  7  1  0  0  0  0
  8  9  1  0  0  0  0
  9 10  2  0  0  0  0
 10  4  1  0  0  0  0
 11 12  1  0  0  0  0
 11 18  1  0  0  0  0
 12 13  2  0  0  0  0
 13 14  1  0  0  0  0
 14  8  1  0  0  0  0
 14 15  2  0  0  0  0
 15 16  1  0  0  0  0
 15 91  1  0  0  0  0
 16 60  1  0  0  0  0
 16 17  2  0  0  0  0
 17  9  1  0  0  0  0
 17 89  1  0  0  0  0
 18 19  3  0  0  0  0
 19 20  1  0  0  0  0
 19 90  1  0  0  0  0
 20 54  1  0  0  0  0
 20 21  2  0  0  0  0
 21 12  1  0  0  0  0
 21 93  1  0  0  0  0
 22  2  1  0  0  0  0
 23 18  1  0  0  0  0
 24 25  2  0  0  0  0
 24 87  1  0  0  0  0
 25 26  1  0  0  0  0
 25 45  1  0  0  0  0
 26 27  2  0  0  0  0
 26 30  1  0  0  0  0
 27 28  1  0  0  0  0
 28 29  2  0  0  0  0
 28 84  1  0  0  0  0
 29 66  1  0  0  0  0
 29 24  1  0  0  0  0
 30 34  2  0  0  0  0
 31 30  1  0  0  0  0
 31 32  1  0  0  0  0
 32 33  2  0  0  0  0
 33 27  1  0  0  0  0
 34 35  1  0  0  0  0
 34 41  1  0  0  0  0
 35 36  2  0  0  0  0
 36 37  1  0  0  0  0
 37 31  1  0  0  0  0
 37 38  2  0  0  0  0
 38 39  1  0  0  0  0
 38 86  1  0  0  0  0
 39 78  1  0  0  0  0
 39 40  2  0  0  0  0
 40 32  1  0  0  0  0
 40 85  1  0  0  0  0
 41 42  2  0  0  0  0
 41 46  1  0  0  0  0
 42 43  1  0  0  0  0
 42 88  1  0  0  0  0
 43 72  1  0  0  0  0
 43 44  2  0  0  0  0
 44 35  1  0  0  0  0
 44 94  1  0  0  0  0
 47 46  1  0  0  0  0
 47 22  1  0  0  0  0
 47 45  1  0  0  0  0
 47 23  1  0  0  0  0
 48 49  1  0  0  0  0
 48 50  1  0  0  0  0
 48 51  1  0  0  0  0
 48 52  1  0  0  0  0
 48 53  1  0  0  0  0
 54 55  1  0  0  0  0
 54 56  1  0  0  0  0
 54 57  1  0  0  0  0
 54 58  1  0  0  0  0
 54 59  1  0  0  0  0
 60 61  1  0  0  0  0
 60 62  1  0  0  0  0
 60 63  1  0  0  0  0
 60 64  1  0  0  0  0
 60 65  1  0  0  0  0
 66 67  1  0  0  0  0
 66 68  1  0  0  0  0
 66 69  1  0  0  0  0
 66 70  1  0  0  0  0
 66 71  1  0  0  0  0
 72 73  1  0  0  0  0
 72 74  1  0  0  0  0
 72 75  1  0  0  0  0
 72 76  1  0  0  0  0
 72 77  1  0  0  0  0
 78 79  1  0  0  0  0
 78 80  1  0  0  0  0
 78 81  1  0  0  0  0
 78 82  1  0  0  0  0
 78 83  1  0  0  0  0
M  CHG  1   1   1
M  END
