energy: -278.761248196127 gnorm: 0.000226496457 xtb: 6.7.1 (edcfbbe)_energy: -278.761248196127 gnorm: 0.000226496457 xtb: 6.7.1 (edcfbbe)
 OpenBabel03132511283D

190212  0  0  0  0  0  0  0  0999 V2000
    1.4504    3.5679    0.1454 C   0  0  0  0  0  0  0  0  0  0  0  0
    1.6433    2.1820    0.2534 C   0  0  0  0  0  0  0  0  0  0  0  0
    2.7064    1.5820   -0.4959 C   0  0  0  0  0  0  0  0  0  0  0  0
    3.3720    2.4117   -1.4754 C   0  0  0  0  0  0  0  0  0  0  0  0
    3.0140    3.7731   -1.6622 C   0  0  0  0  0  0  0  0  0  0  0  0
    2.1161    4.3190   -0.8074 C   0  0  0  0  0  0  0  0  0  0  0  0
    3.3130    0.3013   -0.2573 C   0  0  0  0  0  0  0  0  0  0  0  0
    4.5486    0.0428   -0.8949 C   0  0  1  0  0  0  0  0  0  0  0  0
    4.9956    0.8742   -1.9595 C   0  0  0  0  0  0  0  0  0  0  0  0
    4.3847    2.0150   -2.2351 N   0  0  0  0  0  0  0  0  0  0  0  0
    2.9120   -0.6924    0.6981 C   0  0  0  0  0  0  0  0  0  0  0  0
    3.9734   -1.4847    1.2732 C   0  0  0  0  0  0  0  0  0  0  0  0
    5.1451   -1.6568    0.6872 N   0  3  0  0  0  0  0  0  0  0  0  0
    5.3916   -1.0195   -0.4530 C   0  0  0  0  0  0  0  0  0  0  0  0
    6.5677   -1.3243   -1.1747 C   0  0  0  0  0  0  0  0  0  0  0  0
    6.8798   -0.5757   -2.2846 C   0  0  0  0  0  0  0  0  0  0  0  0
    6.1520    0.5105   -2.6956 C   0  0  0  0  0  0  0  0  0  0  0  0
    1.5897   -1.0109    1.0904 C   0  0  0  0  0  0  0  0  0  0  0  0
    1.4138   -1.7409    2.2702 C   0  0  0  0  0  0  0  0  0  0  0  0
    2.5009   -2.1939    3.0064 C   0  0  0  0  0  0  0  0  0  0  0  0
    3.7633   -2.1560    2.5089 C   0  0  0  0  0  0  0  0  0  0  0  0
    0.8273    1.5436    1.0853 O   0  0  0  0  0  0  0  0  0  0  0  0
    0.5446   -0.6873    0.3288 O   0  0  0  0  0  0  0  0  0  0  0  0
   -1.9199   -1.5417    2.5631 C   0  0  0  0  0  0  0  0  0  0  0  0
   -2.0154   -0.6954    1.4475 C   0  0  0  0  0  0  0  0  0  0  0  0
   -2.9068   -1.0630    0.3882 C   0  0  0  0  0  0  0  0  0  0  0  0
   -3.4854   -2.3871    0.4440 C   0  0  0  0  0  0  0  0  0  0  0  0
   -3.2143   -3.2717    1.5211 C   0  0  0  0  0  0  0  0  0  0  0  0
   -2.4978   -2.7990    2.5690 C   0  0  0  0  0  0  0  0  0  0  0  0
   -3.4390   -0.1994   -0.6297 C   0  0  0  0  0  0  0  0  0  0  0  0
   -4.5424   -0.6797   -1.3726 C   0  0  1  0  0  0  0  0  0  0  0  0
   -4.8917   -2.0583   -1.3306 C   0  0  0  0  0  0  0  0  0  0  0  0
   -4.3400   -2.8736   -0.4465 N   0  0  0  0  0  0  0  0  0  0  0  0
   -3.1069    1.1762   -0.8718 C   0  0  0  0  0  0  0  0  0  0  0  0
   -4.1758    2.0091   -1.3704 C   0  0  0  0  0  0  0  0  0  0  0  0
   -5.2304    1.5281   -2.0047 N   0  0  0  0  0  0  0  0  0  0  0  0
   -5.3546    0.2111   -2.1350 C   0  0  0  0  0  0  0  0  0  0  0  0
   -6.3821   -0.3084   -2.9542 C   0  0  0  0  0  0  0  0  0  0  0  0
   -6.5845   -1.6678   -2.9857 C   0  0  0  0  0  0  0  0  0  0  0  0
   -5.8932   -2.5554   -2.2031 C   0  0  0  0  0  0  0  0  0  0  0  0
   -1.8364    1.7832   -0.7268 C   0  0  0  0  0  0  0  0  0  0  0  0
   -1.7802    3.1790   -0.6618 C   0  0  0  0  0  0  0  0  0  0  0  0
   -2.9249    3.9539   -0.7969 C   0  0  0  0  0  0  0  0  0  0  0  0
   -4.0988    3.4212   -1.2227 C   0  0  0  0  0  0  0  0  0  0  0  0
   -1.2809    0.4108    1.4918 O   0  0  0  0  0  0  0  0  0  0  0  0
   -0.7186    1.0570   -0.7210 O   0  0  0  0  0  0  0  0  0  0  0  0
   -0.1569    0.5786    0.5418 B   0  5  1  0  0  0  0  0  0  0  0  0
    1.6244    6.0904   -1.0380 S   0  0  0  0  0  0  0  0  0  0  0  0
    1.1933    6.2613    0.5381 F   0  0  0  0  0  0  0  0  0  0  0  0
    3.1373    6.6516   -0.6707 F   0  0  0  0  0  0  0  0  0  0  0  0
    1.1403    7.6006   -1.2596 F   0  0  0  0  0  0  0  0  0  0  0  0
    2.0569    6.0805   -2.6377 F   0  0  0  0  0  0  0  0  0  0  0  0
    0.1200    5.5618   -1.4885 F   0  0  0  0  0  0  0  0  0  0  0  0
    2.2510   -2.7373    4.7735 S   0  0  0  0  0  0  0  0  0  0  0  0
    3.8029   -3.3050    4.9171 F   0  0  0  0  0  0  0  0  0  0  0  0
    2.8014   -1.2477    5.2670 F   0  0  0  0  0  0  0  0  0  0  0  0
    2.0558   -3.1228    6.3210 F   0  0  0  0  0  0  0  0  0  0  0  0
    0.7162   -2.1341    4.8185 F   0  0  0  0  0  0  0  0  0  0  0  0
    1.7843   -4.2557    4.3776 F   0  0  0  0  0  0  0  0  0  0  0  0
    8.3937   -1.0346   -3.2520 S   0  0  0  0  0  0  0  0  0  0  0  0
    7.5882   -0.8649   -4.6845 F   0  0  0  0  0  0  0  0  0  0  0  0
    7.9909   -2.6366   -3.2132 F   0  0  0  0  0  0  0  0  0  0  0  0
    9.6977   -1.4376   -4.0942 F   0  0  0  0  0  0  0  0  0  0  0  0
    9.2861   -1.2319   -1.8773 F   0  0  0  0  0  0  0  0  0  0  0  0
    8.8832    0.5390   -3.3482 F   0  0  0  0  0  0  0  0  0  0  0  0
   -2.1223   -3.9378    3.9816 S   0  0  0  0  0  0  0  0  0  0  0  0
   -2.3158   -5.2892    3.0420 F   0  0  0  0  0  0  0  0  0  0  0  0
   -3.7130   -4.0613    4.4216 F   0  0  0  0  0  0  0  0  0  0  0  0
   -1.7350   -4.9244    5.1820 F   0  0  0  0  0  0  0  0  0  0  0  0
   -1.9398   -2.6958    5.0416 F   0  0  0  0  0  0  0  0  0  0  0  0
   -0.5309   -3.9020    3.5219 F   0  0  0  0  0  0  0  0  0  0  0  0
   -2.8969    5.7372   -0.2502 S   0  0  0  0  0  0  0  0  0  0  0  0
   -4.4037    6.0484   -0.8698 F   0  0  0  0  0  0  0  0  0  0  0  0
   -3.6286    5.2715    1.1684 F   0  0  0  0  0  0  0  0  0  0  0  0
   -2.9035    7.2468    0.3001 F   0  0  0  0  0  0  0  0  0  0  0  0
   -1.4374    5.5614    0.4977 F   0  0  0  0  0  0  0  0  0  0  0  0
   -2.2591    6.2932   -1.6517 F   0  0  0  0  0  0  0  0  0  0  0  0
   -7.8952   -2.3306   -4.1175 S   0  0  0  0  0  0  0  0  0  0  0  0
   -7.3761   -1.3707   -5.3583 F   0  0  0  0  0  0  0  0  0  0  0  0
   -8.9646   -1.1574   -3.6650 F   0  0  0  0  0  0  0  0  0  0  0  0
   -9.0219   -2.9047   -5.1039 F   0  0  0  0  0  0  0  0  0  0  0  0
   -8.4889   -3.3292   -2.9446 F   0  0  0  0  0  0  0  0  0  0  0  0
   -6.9004   -3.5432   -4.6371 F   0  0  0  0  0  0  0  0  0  0  0  0
   -3.6420   -4.2580    1.4896 H   0  0  0  0  0  0  0  0  0  0  0  0
   -6.1040   -3.6121   -2.2138 H   0  0  0  0  0  0  0  0  0  0  0  0
   -6.9898    0.3699   -3.5304 H   0  0  0  0  0  0  0  0  0  0  0  0
   -1.3609   -1.1911    3.4169 H   0  0  0  0  0  0  0  0  0  0  0  0
   -0.8279    3.6486   -0.5021 H   0  0  0  0  0  0  0  0  0  0  0  0
    6.4451    1.1078   -3.5433 H   0  0  0  0  0  0  0  0  0  0  0  0
    0.4140   -1.9466    2.6039 H   0  0  0  0  0  0  0  0  0  0  0  0
    7.1987   -2.1300   -0.8372 H   0  0  0  0  0  0  0  0  0  0  0  0
    3.5168    4.3305   -2.4325 H   0  0  0  0  0  0  0  0  0  0  0  0
    4.6105   -2.6163    2.9856 H   0  0  0  0  0  0  0  0  0  0  0  0
   -4.9681    4.0044   -1.4698 H   0  0  0  0  0  0  0  0  0  0  0  0
    0.7469    4.0341    0.8178 H   0  0  0  0  0  0  0  0  0  0  0  0
    1.4504    3.5679    6.1454 C   0  0  0  0  0  0  0  0  0  0  0  0
    1.6433    2.1820    6.2534 C   0  0  0  0  0  0  0  0  0  0  0  0
    2.7064    1.5820    5.5041 C   0  0  0  0  0  0  0  0  0  0  0  0
    3.3720    2.4117    4.5246 C   0  0  0  0  0  0  0  0  0  0  0  0
    3.0140    3.7731    4.3378 C   0  0  0  0  0  0  0  0  0  0  0  0
    2.1161    4.3190    5.1926 C   0  0  0  0  0  0  0  0  0  0  0  0
    3.3130    0.3013    5.7427 C   0  0  0  0  0  0  0  0  0  0  0  0
    4.5486    0.0428    5.1051 C   0  0  1  0  0  0  0  0  0  0  0  0
    4.9956    0.8742    4.0405 C   0  0  0  0  0  0  0  0  0  0  0  0
    4.3847    2.0150    3.7649 N   0  0  0  0  0  0  0  0  0  0  0  0
    2.9120   -0.6924    6.6981 C   0  0  0  0  0  0  0  0  0  0  0  0
    3.9734   -1.4847    7.2732 C   0  0  0  0  0  0  0  0  0  0  0  0
    5.1451   -1.6568    6.6872 N   0  3  0  0  0  0  0  0  0  0  0  0
    5.3916   -1.0195    5.5470 C   0  0  0  0  0  0  0  0  0  0  0  0
    6.5677   -1.3243    4.8253 C   0  0  0  0  0  0  0  0  0  0  0  0
    6.8798   -0.5757    3.7154 C   0  0  0  0  0  0  0  0  0  0  0  0
    6.1520    0.5105    3.3044 C   0  0  0  0  0  0  0  0  0  0  0  0
    1.5897   -1.0109    7.0904 C   0  0  0  0  0  0  0  0  0  0  0  0
    1.4138   -1.7409    8.2702 C   0  0  0  0  0  0  0  0  0  0  0  0
    2.5009   -2.1939    9.0064 C   0  0  0  0  0  0  0  0  0  0  0  0
    3.7633   -2.1560    8.5089 C   0  0  0  0  0  0  0  0  0  0  0  0
    0.8273    1.5436    7.0853 O   0  0  0  0  0  0  0  0  0  0  0  0
    0.5446   -0.6873    6.3288 O   0  0  0  0  0  0  0  0  0  0  0  0
   -1.9199   -1.5417    8.5631 C   0  0  0  0  0  0  0  0  0  0  0  0
   -2.0154   -0.6954    7.4475 C   0  0  0  0  0  0  0  0  0  0  0  0
   -2.9068   -1.0630    6.3882 C   0  0  0  0  0  0  0  0  0  0  0  0
   -3.4854   -2.3871    6.4440 C   0  0  0  0  0  0  0  0  0  0  0  0
   -3.2143   -3.2717    7.5211 C   0  0  0  0  0  0  0  0  0  0  0  0
   -2.4978   -2.7990    8.5690 C   0  0  0  0  0  0  0  0  0  0  0  0
   -3.4390   -0.1994    5.3703 C   0  0  0  0  0  0  0  0  0  0  0  0
   -4.5424   -0.6797    4.6274 C   0  0  1  0  0  0  0  0  0  0  0  0
   -4.8917   -2.0583    4.6694 C   0  0  0  0  0  0  0  0  0  0  0  0
   -4.3400   -2.8736    5.5535 N   0  0  0  0  0  0  0  0  0  0  0  0
   -3.1069    1.1762    5.1282 C   0  0  0  0  0  0  0  0  0  0  0  0
   -4.1758    2.0091    4.6296 C   0  0  0  0  0  0  0  0  0  0  0  0
   -5.2304    1.5281    3.9953 N   0  0  0  0  0  0  0  0  0  0  0  0
   -5.3546    0.2111    3.8650 C   0  0  0  0  0  0  0  0  0  0  0  0
   -6.3821   -0.3084    3.0458 C   0  0  0  0  0  0  0  0  0  0  0  0
   -6.5845   -1.6678    3.0143 C   0  0  0  0  0  0  0  0  0  0  0  0
   -5.8932   -2.5554    3.7969 C   0  0  0  0  0  0  0  0  0  0  0  0
   -1.8364    1.7832    5.2732 C   0  0  0  0  0  0  0  0  0  0  0  0
   -1.7802    3.1790    5.3382 C   0  0  0  0  0  0  0  0  0  0  0  0
   -2.9249    3.9539    5.2031 C   0  0  0  0  0  0  0  0  0  0  0  0
   -4.0988    3.4212    4.7773 C   0  0  0  0  0  0  0  0  0  0  0  0
   -1.2809    0.4108    7.4918 O   0  0  0  0  0  0  0  0  0  0  0  0
   -0.7186    1.0570    5.2790 O   0  0  0  0  0  0  0  0  0  0  0  0
   -0.1569    0.5786    6.5418 B   0  5  1  0  0  0  0  0  0  0  0  0
    1.6244    6.0904    4.9620 S   0  0  0  0  0  0  0  0  0  0  0  0
    1.1933    6.2613    6.5381 F   0  0  0  0  0  0  0  0  0  0  0  0
    3.1373    6.6516    5.3293 F   0  0  0  0  0  0  0  0  0  0  0  0
    1.1403    7.6006    4.7404 F   0  0  0  0  0  0  0  0  0  0  0  0
    2.0569    6.0805    3.3623 F   0  0  0  0  0  0  0  0  0  0  0  0
    0.1200    5.5618    4.5115 F   0  0  0  0  0  0  0  0  0  0  0  0
    2.2510   -2.7373   10.7735 S   0  0  0  0  0  0  0  0  0  0  0  0
    3.8029   -3.3050   10.9171 F   0  0  0  0  0  0  0  0  0  0  0  0
    2.8014   -1.2477   11.2670 F   0  0  0  0  0  0  0  0  0  0  0  0
    2.0558   -3.1228   12.3210 F   0  0  0  0  0  0  0  0  0  0  0  0
    0.7162   -2.1341   10.8185 F   0  0  0  0  0  0  0  0  0  0  0  0
    1.7843   -4.2557   10.3776 F   0  0  0  0  0  0  0  0  0  0  0  0
    8.3937   -1.0346    2.7480 S   0  0  0  0  0  0  0  0  0  0  0  0
    7.5882   -0.8649    1.3155 F   0  0  0  0  0  0  0  0  0  0  0  0
    7.9909   -2.6366    2.7868 F   0  0  0  0  0  0  0  0  0  0  0  0
    9.6977   -1.4376    1.9058 F   0  0  0  0  0  0  0  0  0  0  0  0
    9.2861   -1.2319    4.1227 F   0  0  0  0  0  0  0  0  0  0  0  0
    8.8832    0.5390    2.6518 F   0  0  0  0  0  0  0  0  0  0  0  0
   -2.1223   -3.9378    9.9816 S   0  0  0  0  0  0  0  0  0  0  0  0
   -2.3158   -5.2892    9.0420 F   0  0  0  0  0  0  0  0  0  0  0  0
   -3.7130   -4.0613   10.4216 F   0  0  0  0  0  0  0  0  0  0  0  0
   -1.7350   -4.9244   11.1820 F   0  0  0  0  0  0  0  0  0  0  0  0
   -1.9398   -2.6958   11.0416 F   0  0  0  0  0  0  0  0  0  0  0  0
   -0.5309   -3.9020    9.5219 F   0  0  0  0  0  0  0  0  0  0  0  0
   -2.8969    5.7372    5.7498 S   0  0  0  0  0  0  0  0  0  0  0  0
   -4.4037    6.0484    5.1302 F   0  0  0  0  0  0  0  0  0  0  0  0
   -3.6286    5.2715    7.1684 F   0  0  0  0  0  0  0  0  0  0  0  0
   -2.9035    7.2468    6.3001 F   0  0  0  0  0  0  0  0  0  0  0  0
   -1.4374    5.5614    6.4977 F   0  0  0  0  0  0  0  0  0  0  0  0
   -2.2591    6.2932    4.3483 F   0  0  0  0  0  0  0  0  0  0  0  0
   -7.8952   -2.3306    1.8825 S   0  0  0  0  0  0  0  0  0  0  0  0
   -7.3761   -1.3707    0.6417 F   0  0  0  0  0  0  0  0  0  0  0  0
   -8.9646   -1.1574    2.3350 F   0  0  0  0  0  0  0  0  0  0  0  0
   -9.0219   -2.9047    0.8961 F   0  0  0  0  0  0  0  0  0  0  0  0
   -8.4889   -3.3292    3.0554 F   0  0  0  0  0  0  0  0  0  0  0  0
   -6.9004   -3.5432    1.3629 F   0  0  0  0  0  0  0  0  0  0  0  0
   -3.6420   -4.2580    7.4896 H   0  0  0  0  0  0  0  0  0  0  0  0
   -6.1040   -3.6121    3.7862 H   0  0  0  0  0  0  0  0  0  0  0  0
   -6.9898    0.3699    2.4696 H   0  0  0  0  0  0  0  0  0  0  0  0
   -1.3609   -1.1911    9.4169 H   0  0  0  0  0  0  0  0  0  0  0  0
   -0.8279    3.6486    5.4979 H   0  0  0  0  0  0  0  0  0  0  0  0
    6.4451    1.1078    2.4567 H   0  0  0  0  0  0  0  0  0  0  0  0
    0.4140   -1.9466    8.6039 H   0  0  0  0  0  0  0  0  0  0  0  0
    7.1987   -2.1300    5.1628 H   0  0  0  0  0  0  0  0  0  0  0  0
    3.5168    4.3305    3.5675 H   0  0  0  0  0  0  0  0  0  0  0  0
    4.6105   -2.6163    8.9856 H   0  0  0  0  0  0  0  0  0  0  0  0
   -4.9681    4.0044    4.5302 H   0  0  0  0  0  0  0  0  0  0  0  0
    0.7469    4.0341    6.8178 H   0  0  0  0  0  0  0  0  0  0  0  0
  1  2  2  0  0  0  0
  1 95  1  0  0  0  0
  2  3  1  0  0  0  0
  3  4  2  0  0  0  0
  3  7  1  0  0  0  0
  4  5  1  0  0  0  0
  5  6  2  0  0  0  0
  5 92  1  0  0  0  0
  6 48  1  0  0  0  0
  6  1  1  0  0  0  0
  7 11  2  0  0  0  0
  8  7  1  1  0  0  0
  8  9  1  0  0  0  0
  9 10  2  0  0  0  0
 10  4  1  0  0  0  0
 11 12  1  0  0  0  0
 11 18  1  0  0  0  0
 12 13  2  0  0  0  0
 13 14  1  0  0  0  0
 14  8  1  0  0  0  0
 14 15  2  0  0  0  0
 15 16  1  0  0  0  0
 15 91  1  0  0  0  0
 16 60  1  0  0  0  0
 16 17  2  0  0  0  0
 17  9  1  0  0  0  0
 17 89  1  0  0  0  0
 18 19  3  0  0  0  0
 19 20  1  0  0  0  0
 19 90  1  0  0  0  0
 20 54  1  0  0  0  0
 20 21  2  0  0  0  0
 21 12  1  0  0  0  0
 21 93  1  0  0  0  0
 22  2  1  0  0  0  0
 23 18  1  0  0  0  0
 24 25  2  0  0  0  0
 24 87  1  0  0  0  0
 25 26  1  0  0  0  0
 25 45  1  0  0  0  0
 26 27  2  0  0  0  0
 26 30  1  0  0  0  0
 27 28  1  0  0  0  0
 28 29  2  0  0  0  0
 28 84  1  0  0  0  0
 29 66  1  0  0  0  0
 29 24  1  0  0  0  0
 30 34  2  0  0  0  0
 31 30  1  1  0  0  0
 31 32  1  0  0  0  0
 32 33  2  0  0  0  0
 33 27  1  0  0  0  0
 34 35  1  0  0  0  0
 34 41  1  0  0  0  0
 35 36  2  0  0  0  0
 36 37  1  0  0  0  0
 37 31  1  0  0  0  0
 37 38  2  0  0  0  0
 38 39  1  0  0  0  0
 38 86  1  0  0  0  0
 39 78  1  0  0  0  0
 39 40  2  0  0  0  0
 40 32  1  0  0  0  0
 40 85  1  0  0  0  0
 41 42  2  0  0  0  0
 41 46  1  0  0  0  0
 42 43  1  0  0  0  0
 42 88  1  0  0  0  0
 43 72  1  0  0  0  0
 43 44  2  0  0  0  0
 44 35  1  0  0  0  0
 44 94  1  0  0  0  0
 47 46  1  6  0  0  0
 47 22  1  0  0  0  0
 47 45  1  0  0  0  0
 47 23  1  0  0  0  0
 48 49  1  0  0  0  0
 48 50  1  0  0  0  0
 48 51  1  0  0  0  0
 48 52  1  0  0  0  0
 48 53  1  0  0  0  0
 54 55  1  0  0  0  0
 54 56  1  0  0  0  0
 54 57  1  0  0  0  0
 54 58  1  0  0  0  0
 54 59  1  0  0  0  0
 60 61  1  0  0  0  0
 60 62  1  0  0  0  0
 60 63  1  0  0  0  0
 60 64  1  0  0  0  0
 60 65  1  0  0  0  0
 66 67  1  0  0  0  0
 66 68  1  0  0  0  0
 66 69  1  0  0  0  0
 66 70  1  0  0  0  0
 66 71  1  0  0  0  0
 72 73  1  0  0  0  0
 72 74  1  0  0  0  0
 72 75  1  0  0  0  0
 72 76  1  0  0  0  0
 72 77  1  0  0  0  0
 78 79  1  0  0  0  0
 78 80  1  0  0  0  0
 78 81  1  0  0  0  0
 78 82  1  0  0  0  0
 78 83  1  0  0  0  0
 96 97  2  0  0  0  0
 96190  1  0  0  0  0
 97 98  1  0  0  0  0
 98 99  2  0  0  0  0
 98102  1  0  0  0  0
 99100  1  0  0  0  0
100101  2  0  0  0  0
100187  1  0  0  0  0
101143  1  0  0  0  0
101 96  1  0  0  0  0
102106  2  0  0  0  0
103102  1  1  0  0  0
103104  1  0  0  0  0
104105  2  0  0  0  0
105 99  1  0  0  0  0
106107  1  0  0  0  0
106113  1  0  0  0  0
107108  2  0  0  0  0
108109  1  0  0  0  0
109103  1  0  0  0  0
109110  2  0  0  0  0
110111  1  0  0  0  0
110186  1  0  0  0  0
111155  1  0  0  0  0
111112  2  0  0  0  0
112104  1  0  0  0  0
112184  1  0  0  0  0
113114  3  0  0  0  0
114115  1  0  0  0  0
114185  1  0  0  0  0
115149  1  0  0  0  0
115116  2  0  0  0  0
116107  1  0  0  0  0
116188  1  0  0  0  0
117 97  1  0  0  0  0
118113  1  0  0  0  0
119120  2  0  0  0  0
119182  1  0  0  0  0
120121  1  0  0  0  0
120140  1  0  0  0  0
121122  2  0  0  0  0
121125  1  0  0  0  0
122123  1  0  0  0  0
123124  2  0  0  0  0
123179  1  0  0  0  0
124161  1  0  0  0  0
124119  1  0  0  0  0
125129  2  0  0  0  0
126125  1  1  0  0  0
126127  1  0  0  0  0
127128  2  0  0  0  0
128122  1  0  0  0  0
129130  1  0  0  0  0
129136  1  0  0  0  0
130131  2  0  0  0  0
131132  1  0  0  0  0
132126  1  0  0  0  0
132133  2  0  0  0  0
133134  1  0  0  0  0
133181  1  0  0  0  0
134173  1  0  0  0  0
134135  2  0  0  0  0
135127  1  0  0  0  0
135180  1  0  0  0  0
136137  2  0  0  0  0
136141  1  0  0  0  0
137138  1  0  0  0  0
137183  1  0  0  0  0
138167  1  0  0  0  0
138139  2  0  0  0  0
139130  1  0  0  0  0
139189  1  0  0  0  0
142141  1  6  0  0  0
142117  1  0  0  0  0
142140  1  0  0  0  0
142118  1  0  0  0  0
143144  1  0  0  0  0
143145  1  0  0  0  0
143146  1  0  0  0  0
143147  1  0  0  0  0
143148  1  0  0  0  0
149150  1  0  0  0  0
149151  1  0  0  0  0
149152  1  0  0  0  0
149153  1  0  0  0  0
149154  1  0  0  0  0
155156  1  0  0  0  0
155157  1  0  0  0  0
155158  1  0  0  0  0
155159  1  0  0  0  0
155160  1  0  0  0  0
161162  1  0  0  0  0
161163  1  0  0  0  0
161164  1  0  0  0  0
161165  1  0  0  0  0
161166  1  0  0  0  0
167168  1  0  0  0  0
167169  1  0  0  0  0
167170  1  0  0  0  0
167171  1  0  0  0  0
167172  1  0  0  0  0
173174  1  0  0  0  0
173175  1  0  0  0  0
173176  1  0  0  0  0
173177  1  0  0  0  0
173178  1  0  0  0  0
M  CHG  4  13   1  47  -1 108   1 142  -1
M  END
