 energy: -51.148569412898 gnorm: 0.000546651923 xtb: 6.7.1 (edcfbbe)
          03102516003D

274296  0     0  0            999 V2000
   -2.5687   -2.6548    1.5157 C   0  0  0  0  0  0  0  0  0  0  0  0
   -2.8369   -1.3806    1.0213 C   0  0  0  0  0  0  0  0  0  0  0  0
   -3.8915   -1.1910    0.0619 C   0  0  0  0  0  0  0  0  0  0  0  0
   -4.5228   -2.3758   -0.4248 C   0  0  0  0  0  0  0  0  0  0  0  0
   -4.1693   -3.6366    0.1017 C   0  0  0  0  0  0  0  0  0  0  0  0
   -3.2366   -3.7933    1.0979 C   0  0  0  0  0  0  0  0  0  0  0  0
   -4.5085    0.0699   -0.2781 C   0  0  0  0  0  5  0  0  0  0  0  0
   -5.7237    0.0121   -0.9829 C   0  0  0  0  0  5  0  0  0  0  0  0
   -6.1598   -1.2096   -1.5613 C   0  0  0  0  0  5  0  0  0  0  0  0
   -5.5475   -2.3802   -1.3112 N   0  0  0  0  0  4  0  0  0  0  0  0
   -4.1463    1.3883    0.1681 C   0  0  0  0  0  0  0  0  0  0  0  0
   -5.1488    2.3972    0.2397 C   0  0  0  0  0  0  0  0  0  0  0  0
   -6.3348    2.2981   -0.3965 N   0  0  0  0  0  0  0  0  0  0  0  0
   -6.5629    1.1607   -1.0824 C   0  0  0  0  0  0  0  0  0  0  0  0
   -7.7402    1.0697   -1.8394 C   0  0  0  0  0  0  0  0  0  0  0  0
   -8.1265   -0.0924   -2.4836 C   0  0  0  0  0  5  0  0  0  0  0  0
   -7.3356   -1.2182   -2.3274 C   0  0  0  0  0  5  0  0  0  0  0  0
   -2.8083    1.7964    0.4663 C   0  0  0  0  0  0  0  0  0  0  0  0
   -2.6005    2.9491    1.2237 C   0  0  0  0  0  0  0  0  0  0  0  0
   -3.6246    3.8533    1.4767 C   0  0  0  0  0  0  0  0  0  0  0  0
   -4.8626    3.5911    0.9318 C   0  0  0  0  0  0  0  0  0  0  0  0
   -2.0453   -0.4078    1.5998 O   0  0  0  0  0  0  0  0  0  0  0  0
   -1.7395    1.1328   -0.1028 O   0  0  0  0  0  0  0  0  0  0  0  0
   -1.0062    0.2996    0.8393 B   0  0  0  0  0  0  0  0  0  0  0  0
    0.5012   -2.8106    0.0799 C   0  0  0  0  0  5  0  0  0  0  0  0
    0.7752   -1.5436    0.5976 C   0  0  0  0  0  5  0  0  0  0  0  0
    1.9093   -1.3557    1.4675 C   0  0  0  0  0  0  0  0  0  0  0  0
    2.5831   -2.5473    1.8825 C   0  0  0  0  0  0  0  0  0  0  0  0
    2.2168   -3.7993    1.3441 C   0  0  0  0  0  5  0  0  0  0  0  0
    1.2329   -3.9441    0.3986 C   0  0  0  0  0  5  0  0  0  0  0  0
    2.5810   -0.1011    1.7371 C   0  0  0  0  0  0  0  0  0  0  0  0
    3.8665   -0.1819    2.3059 C   0  0  0  0  0  0  0  0  0  0  0  0
    4.3344   -1.4068    2.8513 C   0  0  0  0  0  0  0  0  0  0  0  0
    3.6796   -2.5666    2.6772 N   0  0  0  0  0  0  0  0  0  0  0  0
    2.2293    1.2169    1.2734 C   0  0  0  0  0  0  0  0  0  0  0  0
    3.2683    2.1616    1.0240 C   0  0  0  0  0  0  0  0  0  0  0  0
    4.5009    2.0510    1.5626 N   0  0  0  0  0  0  0  0  0  0  0  0
    4.7497    0.9394    2.2826 C   0  0  0  0  0  0  0  0  0  0  0  0
    5.9984    0.8272    2.9157 C   0  0  0  0  0  0  0  0  0  0  0  0
    6.4225   -0.3378    3.5335 C   0  0  0  0  0  0  0  0  0  0  0  0
    5.5865   -1.4389    3.4828 C   0  0  0  0  0  0  0  0  0  0  0  0
    0.8908    1.6716    1.0552 C   0  0  0  0  0  0  0  0  0  0  0  0
    0.6751    2.7703    0.2244 C   0  0  0  0  0  0  0  0  0  0  0  0
    1.7152    3.5645   -0.2399 C   0  0  0  0  0  0  0  0  0  0  0  0
    2.9831    3.2889    0.2238 C   0  0  0  0  0  0  0  0  0  0  0  0
   -0.1656    1.0872    1.7207 O   0  0  0  0  0  0  0  0  0  0  0  0
   -0.0863   -0.5825    0.1031 O   0  0  0  0  0  0  0  0  0  0  0  0
   -3.0802   -5.1210    1.8543 C   0  0  0  0  0  0  0  0  0  0  0  0
   -1.7636   -5.1393    2.6575 C   0  0  0  0  0  0  0  0  0  0  0  0
   -3.0906   -6.3179    0.8860 C   0  0  0  0  0  0  0  0  0  0  0  0
   -4.2571   -5.2601    2.8350 C   0  0  0  0  0  0  0  0  0  0  0  0
   -3.3663    5.1731    2.2112 C   0  0  0  0  0  0  0  0  0  0  0  0
   -4.4286    5.3631    3.3087 C   0  0  0  0  0  0  0  0  0  0  0  0
   -1.9699    5.1867    2.8619 C   0  0  0  0  0  0  0  0  0  0  0  0
   -3.4471    6.3347    1.2066 C   0  0  0  0  0  0  0  0  0  0  0  0
   -9.4372   -0.1129   -3.2832 C   0  0  0  0  0  0  0  0  0  0  0  0
   -9.6456   -1.4594   -4.0022 C   0  0  0  0  0  0  0  0  0  0  0  0
   -9.4072    1.0016   -4.3458 C   0  0  0  0  0  0  0  0  0  0  0  0
  -10.6161    0.1179   -2.3211 C   0  0  0  0  0  0  0  0  0  0  0  0
    1.1130   -5.2489   -0.4066 C   0  0  0  0  0  0  0  0  0  0  0  0
   -0.0906   -5.2011   -1.3671 C   0  0  0  0  0  0  0  0  0  0  0  0
    0.9635   -6.4636    0.5271 C   0  0  0  0  0  0  0  0  0  0  0  0
    2.3932   -5.4188   -1.2457 C   0  0  0  0  0  0  0  0  0  0  0  0
    1.4579    4.7619   -1.1655 C   0  0  0  0  0  0  0  0  0  0  0  0
    2.4666    4.7415   -2.3288 C   0  0  0  0  0  0  0  0  0  0  0  0
    1.6137    6.0664   -0.3692 C   0  0  0  0  0  0  0  0  0  0  0  0
    0.0363    4.7148   -1.7612 C   0  0  0  0  0  0  0  0  0  0  0  0
    7.8422   -0.4729    4.1043 C   0  0  0  0  0  0  0  0  0  0  0  0
    8.3945    0.8962    4.5446 C   0  0  0  0  0  0  0  0  0  0  0  0
    7.8449   -1.4124    5.3265 C   0  0  0  0  0  0  0  0  0  0  0  0
    8.7586   -1.0563    3.0164 C   0  0  0  0  0  0  0  0  0  0  0  0
  -11.5656    0.0974   -2.8552 H   0  0  0  0  0  0  0  0  0  0  0  0
  -10.5342    1.0821   -1.8211 H   0  0  0  0  0  0  0  0  0  0  0  0
  -10.6430   -0.6549   -1.5534 H   0  0  0  0  0  0  0  0  0  0  0  0
  -10.5609   -1.4442   -4.5933 H   0  0  0  0  0  0  0  0  0  0  0  0
   -9.7309   -2.2780   -3.2883 H   0  0  0  0  0  0  0  0  0  0  0  0
   -8.8183   -1.6735   -4.6782 H   0  0  0  0  0  0  0  0  0  0  0  0
  -10.3151    0.9903   -4.9482 H   0  0  0  0  0  0  0  0  0  0  0  0
   -8.5569    0.8721   -5.0146 H   0  0  0  0  0  0  0  0  0  0  0  0
   -9.3261    1.9863   -3.8881 H   0  0  0  0  0  0  0  0  0  0  0  0
   -4.1821   -6.1831    3.4091 H   0  0  0  0  0  0  0  0  0  0  0  0
   -5.2079   -5.2672    2.3031 H   0  0  0  0  0  0  0  0  0  0  0  0
   -4.2736   -4.4260    3.5351 H   0  0  0  0  0  0  0  0  0  0  0  0
   -1.5698   -6.1273    3.0743 H   0  0  0  0  0  0  0  0  0  0  0  0
   -1.8020   -4.4385    3.4892 H   0  0  0  0  0  0  0  0  0  0  0  0
   -0.9206   -4.8581    2.0295 H   0  0  0  0  0  0  0  0  0  0  0  0
   -2.9390   -7.2523    1.4260 H   0  0  0  0  0  0  0  0  0  0  0  0
   -2.3014   -6.2333    0.1435 H   0  0  0  0  0  0  0  0  0  0  0  0
   -4.0403   -6.3976    0.3597 H   0  0  0  0  0  0  0  0  0  0  0  0
   -0.2293   -6.1591   -1.8673 H   0  0  0  0  0  0  0  0  0  0  0  0
    0.0557   -4.4459   -2.1388 H   0  0  0  0  0  0  0  0  0  0  0  0
   -1.0083   -4.9615   -0.8343 H   0  0  0  0  0  0  0  0  0  0  0  0
    2.3415   -6.3165   -1.8612 H   0  0  0  0  0  0  0  0  0  0  0  0
    3.2726   -5.4988   -0.6078 H   0  0  0  0  0  0  0  0  0  0  0  0
    2.5370   -4.5640   -1.9058 H   0  0  0  0  0  0  0  0  0  0  0  0
    0.9386   -7.3891   -0.0477 H   0  0  0  0  0  0  0  0  0  0  0  0
    0.0424   -6.4126    1.1014 H   0  0  0  0  0  0  0  0  0  0  0  0
    1.7942   -6.5334    1.2277 H   0  0  0  0  0  0  0  0  0  0  0  0
   -4.2175    6.2460    3.9110 H   0  0  0  0  0  0  0  0  0  0  0  0
   -4.4544    4.4974    3.9674 H   0  0  0  0  0  0  0  0  0  0  0  0
   -5.4234    5.4828    2.8825 H   0  0  0  0  0  0  0  0  0  0  0  0
    1.4431    6.9345   -1.0053 H   0  0  0  0  0  0  0  0  0  0  0  0
    2.6150    6.1506    0.0510 H   0  0  0  0  0  0  0  0  0  0  0  0
    0.8956    6.1045    0.4493 H   0  0  0  0  0  0  0  0  0  0  0  0
   -1.8179    6.1078    3.4214 H   0  0  0  0  0  0  0  0  0  0  0  0
   -1.1822    5.1324    2.1112 H   0  0  0  0  0  0  0  0  0  0  0  0
   -1.8484    4.3488    3.5467 H   0  0  0  0  0  0  0  0  0  0  0  0
   -3.2619    7.2891    1.6988 H   0  0  0  0  0  0  0  0  0  0  0  0
   -4.4300    6.3824    0.7396 H   0  0  0  0  0  0  0  0  0  0  0  0
   -2.7071    6.2123    0.4162 H   0  0  0  0  0  0  0  0  0  0  0  0
    2.2694    5.5526   -3.0291 H   0  0  0  0  0  0  0  0  0  0  0  0
    2.4035    3.8010   -2.8750 H   0  0  0  0  0  0  0  0  0  0  0  0
    3.4890    4.8559   -1.9723 H   0  0  0  0  0  0  0  0  0  0  0  0
   -0.1098    5.5215   -2.4789 H   0  0  0  0  0  0  0  0  0  0  0  0
   -0.7219    4.8284   -0.9872 H   0  0  0  0  0  0  0  0  0  0  0  0
   -0.1386    3.7718   -2.2784 H   0  0  0  0  0  0  0  0  0  0  0  0
    8.7828   -0.4061    2.1425 H   0  0  0  0  0  0  0  0  0  0  0  0
    8.4036   -2.0347    2.6943 H   0  0  0  0  0  0  0  0  0  0  0  0
    9.7781   -1.1695    3.3837 H   0  0  0  0  0  0  0  0  0  0  0  0
    7.0884   -1.1059    6.0443 H   0  0  0  0  0  0  0  0  0  0  0  0
    8.8116   -1.3999    5.8289 H   0  0  0  0  0  0  0  0  0  0  0  0
    7.6391   -2.4432    5.0430 H   0  0  0  0  0  0  0  0  0  0  0  0
    7.6968    1.3939    5.2135 H   0  0  0  0  0  0  0  0  0  0  0  0
    8.5711    1.5493    3.6914 H   0  0  0  0  0  0  0  0  0  0  0  0
    9.3423    0.7840    5.0704 H   0  0  0  0  0  0  0  0  0  0  0  0
    6.6466    1.6818    2.8734 H   0  0  0  0  0  0  0  0  0  0  0  0
    5.9114   -2.3804    3.8834 H   0  0  0  0  0  0  0  0  0  0  0  0
    2.8248   -4.6450    1.6079 H   0  0  0  0  0  0  0  0  0  0  0  0
    3.7971    3.9412   -0.0314 H   0  0  0  0  0  0  0  0  0  0  0  0
   -5.6489    4.3181    1.0149 H   0  0  0  0  0  0  0  0  0  0  0  0
   -4.7303   -4.4853   -0.2429 H   0  0  0  0  0  0  0  0  0  0  0  0
   -8.3621    1.9437   -1.8952 H   0  0  0  0  0  0  0  0  0  0  0  0
   -7.6294   -2.1541   -2.7633 H   0  0  0  0  0  0  0  0  0  0  0  0
   -0.3060   -2.8691   -0.6258 H   0  0  0  0  0  0  0  0  0  0  0  0
   -1.8311   -2.7109    2.2939 H   0  0  0  0  0  0  0  0  0  0  0  0
   -1.6071    3.1398    1.5789 H   0  0  0  0  0  0  0  0  0  0  0  0
   -0.3364    2.9937   -0.0479 H   0  0  0  0  0  0  0  0  0  0  0  0
   -0.3739   -2.2886    6.9958 C   0  0  0  0  0  0  0  0  0  0  0  0
   -0.6145   -1.1068    6.2930 C   0  0  0  0  0  0  0  0  0  0  0  0
   -1.7410   -1.0231    5.3974 C   0  0  0  0  0  0  0  0  0  0  0  0
   -2.4394   -2.2478    5.1554 C   0  0  0  0  0  0  0  0  0  0  0  0
   -2.1052   -3.4145    5.8756 C   0  0  0  0  0  0  0  0  0  0  0  0
   -1.1313   -3.4396    6.8420 C   0  0  0  0  0  0  0  0  0  0  0  0
   -2.3853    0.1933    4.9467 C   0  0  0  0  0  5  0  0  0  0  0  0
   -3.6692    0.0573    4.3851 C   0  0  0  0  0  5  0  0  0  0  0  0
   -4.1594   -1.2237    4.0164 C   0  0  0  0  0  5  0  0  0  0  0  0
   -3.5317   -2.3596    4.3625 N   0  0  0  0  0  4  0  0  0  0  0  0
   -2.0101    1.5569    5.2226 C   0  0  0  0  0  0  0  0  0  0  0  0
   -3.0318    2.5464    5.3294 C   0  0  0  0  0  0  0  0  0  0  0  0
   -4.2633    2.3841    4.8016 N   0  0  0  0  0  0  0  0  0  0  0  0
   -4.5293    1.1876    4.2415 C   0  0  0  0  0  0  0  0  0  0  0  0
   -5.7749    1.0113    3.6169 C   0  0  0  0  0  0  0  0  0  0  0  0
   -6.2182   -0.2210    3.1657 C   0  0  0  0  0  5  0  0  0  0  0  0
   -5.4072   -1.3204    3.3831 C   0  0  0  0  0  5  0  0  0  0  0  0
   -0.6639    2.0140    5.3804 C   0  0  0  0  0  0  0  0  0  0  0  0
   -0.4288    3.2154    6.0476 C   0  0  0  0  0  0  0  0  0  0  0  0
   -1.4553    4.0868    6.3878 C   0  0  0  0  0  0  0  0  0  0  0  0
   -2.7274    3.7703    5.9633 C   0  0  0  0  0  0  0  0  0  0  0  0
    0.2692   -0.1033    6.6415 O   0  0  0  0  0  0  0  0  0  0  0  0
    0.3816    1.3232    4.8058 O   0  0  0  0  0  0  0  0  0  0  0  0
    1.2060    0.6415    5.7849 B   0  0  0  0  0  0  0  0  0  0  0  0
    2.6749   -2.4208    5.5282 C   0  0  0  0  0  5  0  0  0  0  0  0
    2.9875   -1.0976    5.8303 C   0  0  0  0  0  5  0  0  0  0  0  0
    4.0598   -0.8039    6.7424 C   0  0  0  0  0  0  0  0  0  0  0  0
    4.6648   -1.9248    7.3878 C   0  0  0  0  0  0  0  0  0  0  0  0
    4.2662   -3.2368    7.0539 C   0  0  0  0  0  5  0  0  0  0  0  0
    3.3150   -3.5070    6.1004 C   0  0  0  0  0  5  0  0  0  0  0  0
    4.7150    0.4745    6.8925 C   0  0  0  0  0  0  0  0  0  0  0  0
    5.9398    0.4823    7.5830 C   0  0  0  0  0  0  0  0  0  0  0  0
    6.3529   -0.6576    8.3225 C   0  0  0  0  0  0  0  0  0  0  0  0
    5.7042   -1.8331    8.2517 N   0  0  0  0  0  0  0  0  0  0  0  0
    4.3793    1.7269    6.2701 C   0  0  0  0  0  0  0  0  0  0  0  0
    5.4061    2.6876    6.0453 C   0  0  0  0  0  0  0  0  0  0  0  0
    6.5997    2.6453    6.6733 N   0  0  0  0  0  0  0  0  0  0  0  0
    6.8107    1.6092    7.5087 C   0  0  0  0  0  0  0  0  0  0  0  0
    8.0008    1.5927    8.2517 C   0  0  0  0  0  0  0  0  0  0  0  0
    8.3695    0.5187    9.0436 C   0  0  0  0  0  0  0  0  0  0  0  0
    7.5430   -0.5912    9.0624 C   0  0  0  0  0  0  0  0  0  0  0  0
    3.0476    2.1260    5.9335 C   0  0  0  0  0  0  0  0  0  0  0  0
    2.8575    3.1679    5.0261 C   0  0  0  0  0  0  0  0  0  0  0  0
    3.9003    3.9990    4.6362 C   0  0  0  0  0  0  0  0  0  0  0  0
    5.1398    3.7809    5.1967 C   0  0  0  0  0  0  0  0  0  0  0  0
    1.9702    1.5758    6.5990 O   0  0  0  0  0  0  0  0  0  0  0  0
    2.2184   -0.1936    5.1241 O   0  0  0  0  0  0  0  0  0  0  0  0
   -1.0494   -4.6124    7.8336 C   0  0  0  0  0  0  0  0  0  0  0  0
    0.1456   -4.4492    8.7921 C   0  0  0  0  0  0  0  0  0  0  0  0
   -0.9200   -5.9551    7.0922 C   0  0  0  0  0  0  0  0  0  0  0  0
   -2.3413   -4.6277    8.6721 C   0  0  0  0  0  0  0  0  0  0  0  0
   -1.1819    5.3979    7.1382 C   0  0  0  0  0  0  0  0  0  0  0  0
   -2.1584    5.5243    8.3217 C   0  0  0  0  0  0  0  0  0  0  0  0
    0.2562    5.4396    7.6930 C   0  0  0  0  0  0  0  0  0  0  0  0
   -1.3715    6.5855    6.1817 C   0  0  0  0  0  0  0  0  0  0  0  0
   -7.6341   -0.4074    2.6002 C   0  0  0  0  0  0  0  0  0  0  0  0
   -7.6446   -1.5128    1.5256 C   0  0  0  0  0  0  0  0  0  0  0  0
   -8.1500    0.8949    1.9592 C   0  0  0  0  0  0  0  0  0  0  0  0
   -8.5752   -0.8087    3.7477 C   0  0  0  0  0  0  0  0  0  0  0  0
    3.1094   -4.9253    5.5478 C   0  0  0  0  0  0  0  0  0  0  0  0
    1.7880   -5.0178    4.7575 C   0  0  0  0  0  0  0  0  0  0  0  0
    3.0862   -5.9654    6.6826 C   0  0  0  0  0  0  0  0  0  0  0  0
    4.2754   -5.2470    4.5973 C   0  0  0  0  0  0  0  0  0  0  0  0
    3.6641    5.2102    3.7277 C   0  0  0  0  0  0  0  0  0  0  0  0
    4.7154    5.2178    2.6035 C   0  0  0  0  0  0  0  0  0  0  0  0
    3.7880    6.4977    4.5595 C   0  0  0  0  0  0  0  0  0  0  0  0
    2.2592    5.1697    3.0962 C   0  0  0  0  0  0  0  0  0  0  0  0
    9.6799    0.5014    9.8437 C   0  0  0  0  0  0  0  0  0  0  0  0
   10.4395    1.8367    9.7243 C   0  0  0  0  0  0  0  0  0  0  0  0
    9.3660    0.2539   11.3305 C   0  0  0  0  0  0  0  0  0  0  0  0
   10.5838   -0.6234    9.3078 C   0  0  0  0  0  0  0  0  0  0  0  0
   -9.5927   -0.9537    3.3862 H   0  0  0  0  0  0  0  0  0  0  0  0
   -8.5951   -0.0385    4.5181 H   0  0  0  0  0  0  0  0  0  0  0  0
   -8.2453   -1.7372    4.2128 H   0  0  0  0  0  0  0  0  0  0  0  0
   -8.6059   -1.5535    1.0143 H   0  0  0  0  0  0  0  0  0  0  0  0
   -7.4636   -2.4960    1.9568 H   0  0  0  0  0  0  0  0  0  0  0  0
   -6.8750   -1.3277    0.7807 H   0  0  0  0  0  0  0  0  0  0  0  0
   -9.0948    0.7283    1.4427 H   0  0  0  0  0  0  0  0  0  0  0  0
   -7.4343    1.2748    1.2344 H   0  0  0  0  0  0  0  0  0  0  0  0
   -8.3197    1.6686    2.7064 H   0  0  0  0  0  0  0  0  0  0  0  0
   -2.3177   -5.4264    9.4129 H   0  0  0  0  0  0  0  0  0  0  0  0
   -3.2166   -4.7799    8.0418 H   0  0  0  0  0  0  0  0  0  0  0  0
   -2.4697   -3.6821    9.1981 H   0  0  0  0  0  0  0  0  0  0  0  0
    0.2550   -5.3243    9.4321 H   0  0  0  0  0  0  0  0  0  0  0  0
    0.0109   -3.5834    9.4399 H   0  0  0  0  0  0  0  0  0  0  0  0
    1.0747   -4.3142    8.2425 H   0  0  0  0  0  0  0  0  0  0  0  0
   -0.9235   -6.7857    7.7977 H   0  0  0  0  0  0  0  0  0  0  0  0
    0.0081   -6.0102    6.5295 H   0  0  0  0  0  0  0  0  0  0  0  0
   -1.7447   -6.1092    6.3980 H   0  0  0  0  0  0  0  0  0  0  0  0
    1.5628   -6.0488    4.4860 H   0  0  0  0  0  0  0  0  0  0  0  0
    1.8423   -4.4442    3.8344 H   0  0  0  0  0  0  0  0  0  0  0  0
    0.9570   -4.6247    5.3398 H   0  0  0  0  0  0  0  0  0  0  0  0
    4.1637   -6.2395    4.1618 H   0  0  0  0  0  0  0  0  0  0  0  0
    5.2280   -5.2124    5.1249 H   0  0  0  0  0  0  0  0  0  0  0  0
    4.3187   -4.5231    3.7849 H   0  0  0  0  0  0  0  0  0  0  0  0
    2.8946   -6.9630    6.2881 H   0  0  0  0  0  0  0  0  0  0  0  0
    2.3088   -5.7414    7.4083 H   0  0  0  0  0  0  0  0  0  0  0  0
    4.0378   -6.0017    7.2103 H   0  0  0  0  0  0  0  0  0  0  0  0
   -1.9563    6.4262    8.8987 H   0  0  0  0  0  0  0  0  0  0  0  0
   -2.0649    4.6683    8.9893 H   0  0  0  0  0  0  0  0  0  0  0  0
   -3.1918    5.5744    7.9820 H   0  0  0  0  0  0  0  0  0  0  0  0
    3.6202    7.3790    3.9409 H   0  0  0  0  0  0  0  0  0  0  0  0
    4.7782    6.5833    5.0052 H   0  0  0  0  0  0  0  0  0  0  0  0
    3.0563    6.5065    5.3669 H   0  0  0  0  0  0  0  0  0  0  0  0
    0.4177    6.3416    8.2824 H   0  0  0  0  0  0  0  0  0  0  0  0
    0.9908    5.4416    6.8884 H   0  0  0  0  0  0  0  0  0  0  0  0
    0.4516    4.5816    8.3357 H   0  0  0  0  0  0  0  0  0  0  0  0
   -1.2015    7.5311    6.6957 H   0  0  0  0  0  0  0  0  0  0  0  0
   -2.3812    6.6030    5.7736 H   0  0  0  0  0  0  0  0  0  0  0  0
   -0.6685    6.5251    5.3516 H   0  0  0  0  0  0  0  0  0  0  0  0
    4.5143    6.0096    1.8827 H   0  0  0  0  0  0  0  0  0  0  0  0
    4.7155    4.2660    2.0764 H   0  0  0  0  0  0  0  0  0  0  0  0
    5.7180    5.3756    2.9979 H   0  0  0  0  0  0  0  0  0  0  0  0
    2.1211    6.0083    2.4162 H   0  0  0  0  0  0  0  0  0  0  0  0
    1.4811    5.2401    3.8555 H   0  0  0  0  0  0  0  0  0  0  0  0
    2.1081    4.2486    2.5352 H   0  0  0  0  0  0  0  0  0  0  0  0
   10.7977   -0.4737    8.2499 H   0  0  0  0  0  0  0  0  0  0  0  0
   10.1101   -1.5979    9.4180 H   0  0  0  0  0  0  0  0  0  0  0  0
   11.5321   -0.6507    9.8439 H   0  0  0  0  0  0  0  0  0  0  0  0
    8.7047    1.0286   11.7174 H   0  0  0  0  0  0  0  0  0  0  0  0
   10.2774    0.2588   11.9276 H   0  0  0  0  0  0  0  0  0  0  0  0
    8.8769   -0.7078   11.4782 H   0  0  0  0  0  0  0  0  0  0  0  0
    9.8322    2.6663   10.0853 H   0  0  0  0  0  0  0  0  0  0  0  0
   10.7219    2.0373    8.6913 H   0  0  0  0  0  0  0  0  0  0  0  0
   11.3543    1.8150   10.3160 H   0  0  0  0  0  0  0  0  0  0  0  0
    8.6373    2.4535    8.1729 H   0  0  0  0  0  0  0  0  0  0  0  0
    7.8280   -1.4608    9.6249 H   0  0  0  0  0  0  0  0  0  0  0  0
    4.8065   -4.0439    7.5125 H   0  0  0  0  0  0  0  0  0  0  0  0
    5.9435    4.4666    5.0026 H   0  0  0  0  0  0  0  0  0  0  0  0
   -3.5299    4.4666    6.1205 H   0  0  0  0  0  0  0  0  0  0  0  0
   -2.7329   -4.2753    5.7349 H   0  0  0  0  0  0  0  0  0  0  0  0
   -6.4049    1.8762    3.5301 H   0  0  0  0  0  0  0  0  0  0  0  0
   -5.7496   -2.3026    3.1177 H   0  0  0  0  0  0  0  0  0  0  0  0
    1.9244   -2.5662    4.7742 H   0  0  0  0  0  0  0  0  0  0  0  0
    0.4288   -2.2609    7.7084 H   0  0  0  0  0  0  0  0  0  0  0  0
    0.5865    3.4571    6.2891 H   0  0  0  0  0  0  0  0  0  0  0  0
    1.8634    3.3354    4.6614 H   0  0  0  0  0  0  0  0  0  0  0  0
  1135  1  0  0  0  0
  2  1  1  0  0  0  0
  2 22  1  0  0  0  0
  3  7  1  0  0  0  0
  3  2  2  0  0  0  0
  4  3  1  0  0  0  0
  5  4  2  0  0  0  0
  5  6  1  0  0  0  0
  6 48  1  0  0  0  0
  6  1  3  0  0  0  0
  7 11  1  0  0  0  0
  7  8  2  0  0  0  0
  9 17  1  0  0  0  0
  9  8  1  0  0  0  0
 10  4  1  0  0  0  0
 10  9  2  0  0  0  0
 11 18  2  0  0  0  0
 11 12  1  0  0  0  0
 12 21  2  0  0  0  0
 13 12  1  0  0  0  0
 14 13  1  0  0  0  0
 14  8  1  0  0  0  0
 15 16  1  0  0  0  0
 15 14  2  0  0  0  0
 16 17  2  0  0  0  0
 18 19  1  0  0  0  0
 19 20  2  0  0  0  0
 19136  1  0  0  0  0
 21 20  1  0  0  0  0
 23 18  1  0  0  0  0
 24 23  1  0  0  0  0
 24 22  1  0  0  0  0
 24 46  1  0  0  0  0
 25 26  2  0  0  0  0
 25134  1  0  0  0  0
 27 26  1  0  0  0  0
 27 31  2  0  0  0  0
 28 34  2  0  0  0  0
 28 27  1  0  0  0  0
 29 28  1  0  0  0  0
 29128  1  0  0  0  0
 29 30  2  0  0  0  0
 30 25  1  0  0  0  0
 30 60  1  0  0  0  0
 31 35  1  0  0  0  0
 32 31  1  0  0  0  0
 32 38  1  0  0  0  0
 33 32  2  0  0  0  0
 33 41  1  0  0  0  0
 34 33  1  0  0  0  0
 35 36  2  0  0  0  0
 35 42  1  0  0  0  0
 36 37  1  0  0  0  0
 38 37  1  0  0  0  0
 38 39  2  0  0  0  0
 39126  1  0  0  0  0
 40 39  1  0  0  0  0
 41127  1  0  0  0  0
 41 40  2  0  0  0  0
 42 46  1  0  0  0  0
 43 42  2  0  0  0  0
 43137  1  0  0  0  0
 44 45  2  0  0  0  0
 44 43  1  0  0  0  0
 45129  1  0  0  0  0
 45 36  1  0  0  0  0
 47 26  1  0  0  0  0
 47 24  1  0  0  0  0
 48 49  1  0  0  0  0
 49 84  1  0  0  0  0
 49 85  1  0  0  0  0
 49 86  1  0  0  0  0
 50 87  1  0  0  0  0
 50 48  1  0  0  0  0
 50 88  1  0  0  0  0
 51 83  1  0  0  0  0
 51 48  1  0  0  0  0
 52 20  1  0  0  0  0
 52 53  1  0  0  0  0
 52 54  1  0  0  0  0
 53100  1  0  0  0  0
 54107  1  0  0  0  0
 55 52  1  0  0  0  0
 56 16  1  0  0  0  0
 56 59  1  0  0  0  0
 57 56  1  0  0  0  0
 58 78  1  0  0  0  0
 58 56  1  0  0  0  0
 58 80  1  0  0  0  0
 59 72  1  0  0  0  0
 59 74  1  0  0  0  0
 59 73  1  0  0  0  0
 60 63  1  0  0  0  0
 60 62  1  0  0  0  0
 61 90  1  0  0  0  0
 61 60  1  0  0  0  0
 62 97  1  0  0  0  0
 62 96  1  0  0  0  0
 62 98  1  0  0  0  0
 63 94  1  0  0  0  0
 64 66  1  0  0  0  0
 64 44  1  0  0  0  0
 65113  1  0  0  0  0
 65 64  1  0  0  0  0
 66103  1  0  0  0  0
 66104  1  0  0  0  0
 67 64  1  0  0  0  0
 67115  1  0  0  0  0
 68 40  1  0  0  0  0
 68 70  1  0  0  0  0
 69123  1  0  0  0  0
 69 68  1  0  0  0  0
 70121  1  0  0  0  0
 70122  1  0  0  0  0
 70120  1  0  0  0  0
 71119  1  0  0  0  0
 71118  1  0  0  0  0
 71 68  1  0  0  0  0
 75 57  1  0  0  0  0
 76 57  1  0  0  0  0
 77 57  1  0  0  0  0
 79 58  1  0  0  0  0
 81 51  1  0  0  0  0
 82 51  1  0  0  0  0
 89 50  1  0  0  0  0
 91 61  1  0  0  0  0
 92 61  1  0  0  0  0
 93 63  1  0  0  0  0
 95 63  1  0  0  0  0
 99 53  1  0  0  0  0
101 53  1  0  0  0  0
102 66  1  0  0  0  0
105 54  1  0  0  0  0
106 54  1  0  0  0  0
108 55  1  0  0  0  0
109 55  1  0  0  0  0
110 55  1  0  0  0  0
111 65  1  0  0  0  0
112 65  1  0  0  0  0
114 67  1  0  0  0  0
116 67  1  0  0  0  0
117 71  1  0  0  0  0
124 69  1  0  0  0  0
125 69  1  0  0  0  0
130 21  1  0  0  0  0
131  5  1  0  0  0  0
132 15  1  0  0  0  0
133 17  1  0  0  0  0
138272  1  0  0  0  0
139138  1  0  0  0  0
139159  1  0  0  0  0
140144  1  0  0  0  0
140139  2  0  0  0  0
141140  1  0  0  0  0
142141  2  0  0  0  0
142143  1  0  0  0  0
143185  1  0  0  0  0
143138  3  0  0  0  0
144148  1  0  0  0  0
144145  2  0  0  0  0
146154  1  0  0  0  0
146145  1  0  0  0  0
147141  1  0  0  0  0
147146  2  0  0  0  0
148155  2  0  0  0  0
148149  1  0  0  0  0
149158  2  0  0  0  0
150149  1  0  0  0  0
151150  1  0  0  0  0
151145  1  0  0  0  0
152153  1  0  0  0  0
152151  2  0  0  0  0
153154  2  0  0  0  0
155156  1  0  0  0  0
156157  2  0  0  0  0
156273  1  0  0  0  0
158157  1  0  0  0  0
160155  1  0  0  0  0
161160  1  0  0  0  0
161159  1  0  0  0  0
161183  1  0  0  0  0
162163  2  0  0  0  0
162271  1  0  0  0  0
164163  1  0  0  0  0
164168  2  0  0  0  0
165171  2  0  0  0  0
165164  1  0  0  0  0
166165  1  0  0  0  0
166265  1  0  0  0  0
166167  2  0  0  0  0
167162  1  0  0  0  0
167197  1  0  0  0  0
168172  1  0  0  0  0
169168  1  0  0  0  0
169175  1  0  0  0  0
170169  2  0  0  0  0
170178  1  0  0  0  0
171170  1  0  0  0  0
172173  2  0  0  0  0
172179  1  0  0  0  0
173174  1  0  0  0  0
175174  1  0  0  0  0
175176  2  0  0  0  0
176263  1  0  0  0  0
177176  1  0  0  0  0
178264  1  0  0  0  0
178177  2  0  0  0  0
179183  1  0  0  0  0
180179  2  0  0  0  0
180274  1  0  0  0  0
181182  2  0  0  0  0
181180  1  0  0  0  0
182266  1  0  0  0  0
182173  1  0  0  0  0
184163  1  0  0  0  0
184161  1  0  0  0  0
185186  1  0  0  0  0
186221  1  0  0  0  0
186222  1  0  0  0  0
186223  1  0  0  0  0
187224  1  0  0  0  0
187185  1  0  0  0  0
187225  1  0  0  0  0
188220  1  0  0  0  0
188185  1  0  0  0  0
189157  1  0  0  0  0
189190  1  0  0  0  0
189191  1  0  0  0  0
190237  1  0  0  0  0
191244  1  0  0  0  0
192189  1  0  0  0  0
193153  1  0  0  0  0
193196  1  0  0  0  0
194193  1  0  0  0  0
195215  1  0  0  0  0
195193  1  0  0  0  0
195217  1  0  0  0  0
196209  1  0  0  0  0
196211  1  0  0  0  0
196210  1  0  0  0  0
197200  1  0  0  0  0
197199  1  0  0  0  0
198227  1  0  0  0  0
198197  1  0  0  0  0
199234  1  0  0  0  0
199233  1  0  0  0  0
199235  1  0  0  0  0
200231  1  0  0  0  0
201203  1  0  0  0  0
201181  1  0  0  0  0
202250  1  0  0  0  0
202201  1  0  0  0  0
203240  1  0  0  0  0
203241  1  0  0  0  0
204201  1  0  0  0  0
204252  1  0  0  0  0
205177  1  0  0  0  0
205207  1  0  0  0  0
206260  1  0  0  0  0
206205  1  0  0  0  0
207258  1  0  0  0  0
207259  1  0  0  0  0
207257  1  0  0  0  0
208256  1  0  0  0  0
208255  1  0  0  0  0
208205  1  0  0  0  0
212194  1  0  0  0  0
213194  1  0  0  0  0
214194  1  0  0  0  0
216195  1  0  0  0  0
218188  1  0  0  0  0
219188  1  0  0  0  0
226187  1  0  0  0  0
228198  1  0  0  0  0
229198  1  0  0  0  0
230200  1  0  0  0  0
232200  1  0  0  0  0
236190  1  0  0  0  0
238190  1  0  0  0  0
239203  1  0  0  0  0
242191  1  0  0  0  0
243191  1  0  0  0  0
245192  1  0  0  0  0
246192  1  0  0  0  0
247192  1  0  0  0  0
248202  1  0  0  0  0
249202  1  0  0  0  0
251204  1  0  0  0  0
253204  1  0  0  0  0
254208  1  0  0  0  0
261206  1  0  0  0  0
262206  1  0  0  0  0
267158  1  0  0  0  0
268142  1  0  0  0  0
269152  1  0  0  0  0
270154  1  0  0  0  0
M  END
