 energy: -292.186619212424 gnorm: 0.000309067960 xtb: 6.7.1 (edcfbbe)
          03042513053D

110118  0     0  0            999 V2000
   -1.8514    2.2913   -2.7676 C   0  0  0  0  0  0  0  0  0  0  0  0
   -1.5638    1.2449   -1.9030 C   0  0  0  0  0  0  0  0  0  0  0  0
   -0.5499    1.4276   -0.9238 C   0  0  0  0  0  0  0  0  0  0  0  0
    0.3737    2.5114   -1.0915 C   0  0  0  0  0  0  0  0  0  0  0  0
    0.0378    3.5798   -1.9666 C   0  0  0  0  0  0  0  0  0  0  0  0
   -1.0832    3.4465   -2.7139 C   0  0  0  0  0  0  0  0  0  0  0  0
   -0.3146    0.5565    0.1836 C   0  0  0  0  0  0  0  0  0  0  0  0
    0.9988    0.5287    0.6859 C   0  0  0  0  0  0  0  0  0  0  0  0
    1.9298    1.5288    0.2711 C   0  0  0  0  0  0  0  0  0  0  0  0
    1.5617    2.5423   -0.5017 N   0  0  0  0  0  0  0  0  0  0  0  0
   -1.2699   -0.2800    0.8424 C   0  0  0  0  0  0  0  0  0  0  0  0
   -0.7553   -1.3070    1.6963 C   0  0  0  0  0  0  0  0  0  0  0  0
    0.5387   -1.4391    1.9922 N   0  0  0  0  0  0  0  0  0  0  0  0
    1.3981   -0.5206    1.5647 C   0  0  0  0  0  0  0  0  0  0  0  0
    2.7699   -0.6160    1.9179 C   0  0  0  0  0  0  0  0  0  0  0  0
    3.6272    0.3702    1.5022 C   0  0  0  0  0  0  0  0  0  0  0  0
    3.2649    1.4486    0.7344 C   0  0  0  0  0  0  0  0  0  0  0  0
   -2.6811   -0.1054    0.7508 C   0  0  0  0  0  0  0  0  0  0  0  0
   -3.5193   -1.0723    1.2919 C   0  0  0  0  0  0  0  0  0  0  0  0
   -2.9714   -2.1240    2.0095 C   0  0  0  0  0  0  0  0  0  0  0  0
   -1.6480   -2.2563    2.2684 C   0  0  0  0  0  0  0  0  0  0  0  0
   -3.1232    1.0169    0.1838 O   0  0  0  0  0  0  0  0  0  0  0  0
   -2.1375    0.0360   -1.9762 O   0  0  0  0  0  0  0  0  0  0  0  0
    0.6801    4.4405   -2.0192 H   0  0  0  0  0  0  0  0  0  0  0  0
   -2.6552    2.2399   -3.4800 H   0  0  0  0  0  0  0  0  0  0  0  0
    3.9698    2.2129    0.4552 H   0  0  0  0  0  0  0  0  0  0  0  0
    3.1185   -1.4640    2.4811 H   0  0  0  0  0  0  0  0  0  0  0  0
   -1.2491   -3.0512    2.8721 H   0  0  0  0  0  0  0  0  0  0  0  0
   -4.5850   -1.0326    1.1604 H   0  0  0  0  0  0  0  0  0  0  0  0
   -4.5105    1.2580    0.0607 C   0  0  0  0  0  0  0  0  0  0  0  0
   -3.0470   -0.2312   -3.0283 C   0  0  0  0  0  0  0  0  0  0  0  0
   -1.6316    4.8419   -3.7847 S   0  0  0  0  0  0  0  0  0  0  0  0
   -3.2188    4.6345   -3.3267 F   0  0  0  0  0  0  0  0  0  0  0  0
   -1.4147    5.9549   -2.5916 F   0  0  0  0  0  0  0  0  0  0  0  0
   -2.1401    6.0429   -4.7315 F   0  0  0  0  0  0  0  0  0  0  0  0
   -1.9021    3.8254   -5.0798 F   0  0  0  0  0  0  0  0  0  0  0  0
   -0.1023    5.1332   -4.3424 F   0  0  0  0  0  0  0  0  0  0  0  0
   -4.1556   -3.4030    2.6322 S   0  0  0  0  0  0  0  0  0  0  0  0
   -5.3670   -2.2823    2.8844 F   0  0  0  0  0  0  0  0  0  0  0  0
   -4.7472   -3.6625    1.0993 F   0  0  0  0  0  0  0  0  0  0  0  0
   -5.1902   -4.5048    3.1634 F   0  0  0  0  0  0  0  0  0  0  0  0
   -3.0566   -4.6208    2.4462 F   0  0  0  0  0  0  0  0  0  0  0  0
   -3.6582   -3.1866    4.2065 F   0  0  0  0  0  0  0  0  0  0  0  0
    5.4082    0.2360    1.9989 S   0  0  0  0  0  0  0  0  0  0  0  0
    5.9271    0.6373    0.4747 F   0  0  0  0  0  0  0  0  0  0  0  0
    5.4739   -1.3554    1.5904 F   0  0  0  0  0  0  0  0  0  0  0  0
    6.9521    0.1363    2.4323 F   0  0  0  0  0  0  0  0  0  0  0  0
    5.4674    1.8417    2.4154 F   0  0  0  0  0  0  0  0  0  0  0  0
    5.0050   -0.1280    3.5620 F   0  0  0  0  0  0  0  0  0  0  0  0
   -3.3286   -1.2757   -2.9063 H   0  0  0  0  0  0  0  0  0  0  0  0
   -2.5733   -0.0901   -4.0028 H   0  0  0  0  0  0  0  0  0  0  0  0
   -3.9360    0.4004   -2.9616 H   0  0  0  0  0  0  0  0  0  0  0  0
   -4.5846    2.2371   -0.4086 H   0  0  0  0  0  0  0  0  0  0  0  0
   -4.9975    1.2957    1.0374 H   0  0  0  0  0  0  0  0  0  0  0  0
   -4.9935    0.4987   -0.5599 H   0  0  0  0  0  0  0  0  0  0  0  0
   -2.7681    1.8153    3.6076 C   0  0  0  0  0  0  0  0  0  0  0  0
   -2.6864    0.6043    4.2848 C   0  0  0  0  0  0  0  0  0  0  0  0
   -1.4149    0.1312    4.7199 C   0  0  0  0  0  0  0  0  0  0  0  0
   -0.2400    0.8285    4.2898 C   0  0  0  0  0  0  0  0  0  0  0  0
   -0.3613    2.0590    3.5897 C   0  0  0  0  0  0  0  0  0  0  0  0
   -1.6064    2.5032    3.2996 C   0  0  0  0  0  0  0  0  0  0  0  0
   -1.2100   -1.0620    5.4885 C   0  0  0  0  0  0  0  0  0  0  0  0
    0.0824   -1.6187    5.4491 C   0  0  0  0  0  0  0  0  0  0  0  0
    1.1733   -0.8416    4.9661 C   0  0  0  0  0  0  0  0  0  0  0  0
    0.9999    0.3796    4.4788 N   0  0  0  0  0  0  0  0  0  0  0  0
   -2.1797   -1.7819    6.2485 C   0  0  0  0  0  0  0  0  0  0  0  0
   -1.9203   -3.1776    6.4590 C   0  0  0  0  0  0  0  0  0  0  0  0
   -0.7233   -3.7231    6.2834 N   0  0  0  0  0  0  0  0  0  0  0  0
    0.2916   -2.9560    5.9040 C   0  0  0  0  0  0  0  0  0  0  0  0
    1.6006   -3.4952    5.8646 C   0  0  0  0  0  0  0  0  0  0  0  0
    2.6287   -2.6847    5.4533 C   0  0  0  0  0  0  0  0  0  0  0  0
    2.4802   -1.3856    5.0422 C   0  0  0  0  0  0  0  0  0  0  0  0
   -3.3398   -1.2154    6.8416 C   0  0  0  0  0  0  0  0  0  0  0  0
   -4.3578   -2.0651    7.2475 C   0  0  0  0  0  0  0  0  0  0  0  0
   -4.1684   -3.4376    7.1664 C   0  0  0  0  0  0  0  0  0  0  0  0
   -2.9830   -4.0233    6.8765 C   0  0  0  0  0  0  0  0  0  0  0  0
   -3.3536    0.1125    7.0221 O   0  0  0  0  0  0  0  0  0  0  0  0
   -3.7478   -0.1807    4.4927 O   0  0  0  0  0  0  0  0  0  0  0  0
    0.5306    2.5853    3.3008 H   0  0  0  0  0  0  0  0  0  0  0  0
   -3.7098    2.2362    3.3069 H   0  0  0  0  0  0  0  0  0  0  0  0
    3.3243   -0.7768    4.7718 H   0  0  0  0  0  0  0  0  0  0  0  0
    1.7620   -4.5181    6.1588 H   0  0  0  0  0  0  0  0  0  0  0  0
   -2.8255   -5.0856    6.9267 H   0  0  0  0  0  0  0  0  0  0  0  0
   -5.3023   -1.6957    7.6048 H   0  0  0  0  0  0  0  0  0  0  0  0
   -4.4102    0.6880    7.7693 C   0  0  0  0  0  0  0  0  0  0  0  0
   -5.0491    0.3112    4.2313 C   0  0  0  0  0  0  0  0  0  0  0  0
   -1.7922    4.0931    2.3827 S   0  0  0  0  0  0  0  0  0  0  0  0
   -2.9364    4.6563    3.4490 F   0  0  0  0  0  0  0  0  0  0  0  0
   -0.5926    4.8277    3.2451 F   0  0  0  0  0  0  0  0  0  0  0  0
   -1.9563    5.4650    1.5635 F   0  0  0  0  0  0  0  0  0  0  0  0
   -3.0212    3.4880    1.4284 F   0  0  0  0  0  0  0  0  0  0  0  0
   -0.6889    3.6098    1.2326 F   0  0  0  0  0  0  0  0  0  0  0  0
   -5.6506   -4.4885    7.4476 S   0  0  0  0  0  0  0  0  0  0  0  0
   -6.1314   -3.5718    8.7601 F   0  0  0  0  0  0  0  0  0  0  0  0
   -6.5818   -3.5188    6.4715 F   0  0  0  0  0  0  0  0  0  0  0  0
   -6.9701   -5.3783    7.7041 F   0  0  0  0  0  0  0  0  0  0  0  0
   -5.2964   -5.4815    6.1890 F   0  0  0  0  0  0  0  0  0  0  0  0
   -4.8430   -5.5068    8.4752 F   0  0  0  0  0  0  0  0  0  0  0  0
    4.3338   -3.4000    5.3560 S   0  0  0  0  0  0  0  0  0  0  0  0
    5.0303   -2.0351    5.9586 F   0  0  0  0  0  0  0  0  0  0  0  0
    4.5050   -2.8580    3.8030 F   0  0  0  0  0  0  0  0  0  0  0  0
    5.8066   -4.0340    5.2525 F   0  0  0  0  0  0  0  0  0  0  0  0
    4.2362   -4.0221    6.8919 F   0  0  0  0  0  0  0  0  0  0  0  0
    3.7538   -4.8381    4.7637 F   0  0  0  0  0  0  0  0  0  0  0  0
   -5.7228   -0.4792    4.5563 H   0  0  0  0  0  0  0  0  0  0  0  0
   -5.2029    0.4848    3.1648 H   0  0  0  0  0  0  0  0  0  0  0  0
   -5.2388    1.2340    4.7856 H   0  0  0  0  0  0  0  0  0  0  0  0
   -4.1627    1.7450    7.8513 H   0  0  0  0  0  0  0  0  0  0  0  0
   -4.4699    0.2467    8.7671 H   0  0  0  0  0  0  0  0  0  0  0  0
   -5.3719    0.5731    7.2641 H   0  0  0  0  0  0  0  0  0  0  0  0
  1  2  2  0  0  0  0
  1 25  1  0  0  0  0
  2  3  1  0  0  0  0
  2 23  1  0  0  0  0
  3  4  2  0  0  0  0
  3  7  1  0  0  0  0
  4  5  1  0  0  0  0
  5  6  2  0  0  0  0
  5 24  1  0  0  0  0
  6 32  1  0  0  0  0
  6  1  1  0  0  0  0
  7 11  2  0  0  0  0
  8  7  1  0  0  0  0
  8  9  1  0  0  0  0
  9 10  2  0  0  0  0
 10  4  1  0  0  0  0
 11 12  1  0  0  0  0
 11 18  1  0  0  0  0
 12 13  2  0  0  0  0
 13 14  1  0  0  0  0
 14  8  1  0  0  0  0
 14 15  2  0  0  0  0
 15 16  1  0  0  0  0
 15 27  1  0  0  0  0
 16 44  1  0  0  0  0
 16 17  2  0  0  0  0
 17  9  1  0  0  0  0
 17 26  1  0  0  0  0
 18 19  2  0  0  0  0
 19 20  1  0  0  0  0
 19 29  1  0  0  0  0
 20 38  1  0  0  0  0
 20 21  2  0  0  0  0
 21 12  1  0  0  0  0
 21 28  1  0  0  0  0
 22 30  1  0  0  0  0
 22 18  1  0  0  0  0
 23 31  1  0  0  0  0
 30 53  1  0  0  0  0
 30 54  1  0  0  0  0
 30 55  1  0  0  0  0
 31 50  1  0  0  0  0
 31 51  1  0  0  0  0
 31 52  1  0  0  0  0
 32 33  1  0  0  0  0
 32 34  1  0  0  0  0
 32 35  1  0  0  0  0
 32 36  1  0  0  0  0
 32 37  1  0  0  0  0
 38 39  1  0  0  0  0
 38 40  1  0  0  0  0
 38 41  1  0  0  0  0
 38 42  1  0  0  0  0
 38 43  1  0  0  0  0
 44 45  1  0  0  0  0
 44 46  1  0  0  0  0
 44 47  1  0  0  0  0
 44 48  1  0  0  0  0
 44 49  1  0  0  0  0
 56 57  2  0  0  0  0
 56 80  1  0  0  0  0
 57 58  1  0  0  0  0
 57 78  1  0  0  0  0
 58 59  2  0  0  0  0
 58 62  1  0  0  0  0
 59 60  1  0  0  0  0
 60 61  2  0  0  0  0
 60 79  1  0  0  0  0
 61 87  1  0  0  0  0
 61 56  1  0  0  0  0
 62 66  2  0  0  0  0
 63 62  1  0  0  0  0
 63 64  1  0  0  0  0
 64 65  2  0  0  0  0
 65 59  1  0  0  0  0
 66 67  1  0  0  0  0
 66 73  1  0  0  0  0
 67 68  2  0  0  0  0
 68 69  1  0  0  0  0
 69 63  1  0  0  0  0
 69 70  2  0  0  0  0
 70 71  1  0  0  0  0
 70 82  1  0  0  0  0
 71 99  1  0  0  0  0
 71 72  2  0  0  0  0
 72 64  1  0  0  0  0
 72 81  1  0  0  0  0
 73 74  2  0  0  0  0
 74 75  1  0  0  0  0
 74 84  1  0  0  0  0
 75 93  1  0  0  0  0
 75 76  2  0  0  0  0
 76 67  1  0  0  0  0
 76 83  1  0  0  0  0
 77 85  1  0  0  0  0
 77 73  1  0  0  0  0
 78 86  1  0  0  0  0
 85108  1  0  0  0  0
 85109  1  0  0  0  0
 85110  1  0  0  0  0
 86105  1  0  0  0  0
 86106  1  0  0  0  0
 86107  1  0  0  0  0
 87 88  1  0  0  0  0
 87 89  1  0  0  0  0
 87 90  1  0  0  0  0
 87 91  1  0  0  0  0
 87 92  1  0  0  0  0
 93 94  1  0  0  0  0
 93 95  1  0  0  0  0
 93 96  1  0  0  0  0
 93 97  1  0  0  0  0
 93 98  1  0  0  0  0
 99100  1  0  0  0  0
 99101  1  0  0  0  0
 99102  1  0  0  0  0
 99103  1  0  0  0  0
 99104  1  0  0  0  0
M  END
