 xtb: 6.7.1 (edcfbbe)
          03132512063D

190212  0     0  0            999 V2000
    1.9801    2.8346    1.9305 C   0  0  0  0  0  0  0  0  0  0  0  0
    2.0576    1.5451    1.4088 C   0  0  0  0  0  0  0  0  0  0  0  0
    2.7594    1.2903    0.1961 C   0  0  0  0  0  0  0  0  0  0  0  0
    3.0900    2.4703   -0.5684 C   0  0  0  0  0  0  0  0  0  0  0  0
    2.8776    3.7852   -0.0608 C   0  0  0  0  0  0  0  0  0  0  0  0
    2.4157    3.9315    1.2063 C   0  0  0  0  0  0  0  0  0  0  0  0
    3.2724    0.0197   -0.2655 C   0  0  0  0  0  0  0  0  0  0  0  0
    4.1122    0.1000   -1.4046 C   0  0  0  0  0  0  0  0  0  0  0  0
    4.2136    1.3023   -2.1651 C   0  0  0  0  0  0  0  0  0  0  0  0
    3.6765    2.4374   -1.7540 N   0  0  0  0  0  0  0  0  0  0  0  0
    3.2206   -1.2820    0.3776 C   0  0  0  0  0  0  0  0  0  0  0  0
    4.3286   -2.1742    0.0724 C   0  0  0  0  0  0  0  0  0  0  0  0
    5.0913   -2.0455   -0.9958 N   0  0  0  0  0  0  0  0  0  0  0  0
    4.9448   -0.9938   -1.7847 C   0  0  0  0  0  0  0  0  0  0  0  0
    5.7350   -0.9237   -2.9560 C   0  0  0  0  0  0  0  0  0  0  0  0
    5.7048    0.2218   -3.7111 C   0  0  0  0  0  0  0  0  0  0  0  0
    4.9803    1.3294   -3.3580 C   0  0  0  0  0  0  0  0  0  0  0  0
    2.2246   -1.8702    1.2120 C   0  0  0  0  0  0  0  0  0  0  0  0
    2.5409   -3.0012    1.9751 C   0  0  0  0  0  0  0  0  0  0  0  0
    3.7505   -3.6471    1.8537 C   0  0  0  0  0  0  0  0  0  0  0  0
    4.6310   -3.3100    0.8792 C   0  0  0  0  0  0  0  0  0  0  0  0
    1.4199    0.6049    2.0965 O   0  0  0  0  0  0  0  0  0  0  0  0
    0.9467   -1.5447    1.2850 O   0  0  0  0  0  0  0  0  0  0  0  0
   -1.1651   -2.3672    2.9880 C   0  0  0  0  0  0  0  0  0  0  0  0
   -1.4604   -1.3975    2.0304 C   0  0  0  0  0  0  0  0  0  0  0  0
   -2.3346   -1.6980    0.9556 C   0  0  0  0  0  0  0  0  0  0  0  0
   -2.8880   -3.0289    0.9034 C   0  0  0  0  0  0  0  0  0  0  0  0
   -2.4694   -4.0201    1.8336 C   0  0  0  0  0  0  0  0  0  0  0  0
   -1.6319   -3.6568    2.8392 C   0  0  0  0  0  0  0  0  0  0  0  0
   -2.7804   -0.7595   -0.0363 C   0  0  0  0  0  0  0  0  0  0  0  0
   -3.8752   -1.1632   -0.8283 C   0  0  0  0  0  0  0  0  0  0  0  0
   -4.3031   -2.5255   -0.8270 C   0  0  0  0  0  0  0  0  0  0  0  0
   -3.7855   -3.4161    0.0060 N   0  0  0  0  0  0  0  0  0  0  0  0
   -2.3021    0.5794   -0.2775 C   0  0  0  0  0  0  0  0  0  0  0  0
   -3.2663    1.4927   -0.8433 C   0  0  0  0  0  0  0  0  0  0  0  0
   -4.3522    1.0878   -1.4875 N   0  0  0  0  0  0  0  0  0  0  0  0
   -4.5691   -0.2143   -1.6373 C   0  0  0  0  0  0  0  0  0  0  0  0
   -5.5524   -0.6628   -2.5479 C   0  0  0  0  0  0  0  0  0  0  0  0
   -5.8590   -2.0011   -2.5835 C   0  0  0  0  0  0  0  0  0  0  0  0
   -5.2946   -2.9357   -1.7540 C   0  0  0  0  0  0  0  0  0  0  0  0
   -0.9791    1.0666   -0.1155 C   0  0  0  0  0  0  0  0  0  0  0  0
   -0.7579    2.4392   -0.1908 C   0  0  0  0  0  0  0  0  0  0  0  0
   -1.7939    3.3129   -0.4485 C   0  0  0  0  0  0  0  0  0  0  0  0
   -3.0341    2.8968   -0.8076 C   0  0  0  0  0  0  0  0  0  0  0  0
   -0.8437   -0.2220    2.1389 O   0  0  0  0  0  0  0  0  0  0  0  0
    0.0810    0.2781    0.0352 O   0  0  0  0  0  0  0  0  0  0  0  0
    0.4277   -0.2049    1.3868 B   0  0  0  0  0  0  0  0  0  0  0  0
    2.4178    5.5895    2.0352 S   0  0  0  0  0  0  0  0  0  0  0  0
    1.4009    5.0497    3.2372 F   0  0  0  0  0  0  0  0  0  0  0  0
    3.7060    5.0654    2.9694 F   0  0  0  0  0  0  0  0  0  0  0  0
    2.5013    6.9723    2.8354 F   0  0  0  0  0  0  0  0  0  0  0  0
    3.5374    6.1999    0.9788 F   0  0  0  0  0  0  0  0  0  0  0  0
    1.2500    6.2141    1.0996 F   0  0  0  0  0  0  0  0  0  0  0  0
    4.0650   -4.9858    3.0838 S   0  0  0  0  0  0  0  0  0  0  0  0
    4.8244   -5.9432    1.9663 F   0  0  0  0  0  0  0  0  0  0  0  0
    5.5353   -4.2929    3.4593 F   0  0  0  0  0  0  0  0  0  0  0  0
    4.3879   -6.0999    4.1824 F   0  0  0  0  0  0  0  0  0  0  0  0
    3.3814   -4.0610    4.2786 F   0  0  0  0  0  0  0  0  0  0  0  0
    2.6410   -5.7278    2.7671 F   0  0  0  0  0  0  0  0  0  0  0  0
    6.7315    0.2915   -5.2500 S   0  0  0  0  0  0  0  0  0  0  0  0
    5.4863    0.9692   -6.1004 F   0  0  0  0  0  0  0  0  0  0  0  0
    6.2201   -1.2127   -5.7087 F   0  0  0  0  0  0  0  0  0  0  0  0
    7.6037    0.3427   -6.5962 F   0  0  0  0  0  0  0  0  0  0  0  0
    8.0281   -0.3899   -4.4971 F   0  0  0  0  0  0  0  0  0  0  0  0
    7.2933    1.7964   -4.8890 F   0  0  0  0  0  0  0  0  0  0  0  0
   -1.0219   -4.9286    4.0425 S   0  0  0  0  0  0  0  0  0  0  0  0
   -0.5645   -5.9166    2.7968 F   0  0  0  0  0  0  0  0  0  0  0  0
   -2.5227   -5.6271    4.0683 F   0  0  0  0  0  0  0  0  0  0  0  0
   -0.5304   -6.0434    5.0520 F   0  0  0  0  0  0  0  0  0  0  0  0
   -1.4048   -3.9133    5.3131 F   0  0  0  0  0  0  0  0  0  0  0  0
    0.4979   -4.2437    4.0949 F   0  0  0  0  0  0  0  0  0  0  0  0
   -1.3794    5.0953   -0.1925 S   0  0  0  0  0  0  0  0  0  0  0  0
   -2.0328    5.5386   -1.6498 F   0  0  0  0  0  0  0  0  0  0  0  0
   -2.8454    5.3475    0.5425 F   0  0  0  0  0  0  0  0  0  0  0  0
   -1.0579    6.6244    0.0739 F   0  0  0  0  0  0  0  0  0  0  0  0
   -0.7173    4.6555    1.2874 F   0  0  0  0  0  0  0  0  0  0  0  0
    0.1111    4.9253   -0.9079 F   0  0  0  0  0  0  0  0  0  0  0  0
   -7.1506   -2.5571   -3.7852 S   0  0  0  0  0  0  0  0  0  0  0  0
   -6.4799   -1.6251   -4.9792 F   0  0  0  0  0  0  0  0  0  0  0  0
   -8.1672   -1.3280   -3.4182 F   0  0  0  0  0  0  0  0  0  0  0  0
   -8.2253   -3.0550   -4.8714 F   0  0  0  0  0  0  0  0  0  0  0  0
   -7.8704   -3.5552   -2.7002 F   0  0  0  0  0  0  0  0  0  0  0  0
   -6.1882   -3.8209   -4.2657 F   0  0  0  0  0  0  0  0  0  0  0  0
   -2.8436   -5.0224    1.7179 H   0  0  0  0  0  0  0  0  0  0  0  0
   -5.5854   -3.9725   -1.7880 H   0  0  0  0  0  0  0  0  0  0  0  0
   -6.0501    0.0511   -3.1824 H   0  0  0  0  0  0  0  0  0  0  0  0
   -0.5191   -2.0923    3.8031 H   0  0  0  0  0  0  0  0  0  0  0  0
    0.2351    2.8151   -0.0329 H   0  0  0  0  0  0  0  0  0  0  0  0
    5.0092    2.2399   -3.9345 H   0  0  0  0  0  0  0  0  0  0  0  0
    1.7929   -3.3788    2.6476 H   0  0  0  0  0  0  0  0  0  0  0  0
    6.3663   -1.7593   -3.2109 H   0  0  0  0  0  0  0  0  0  0  0  0
    3.1605    4.6131   -0.6866 H   0  0  0  0  0  0  0  0  0  0  0  0
    5.5255   -3.8678    0.6628 H   0  0  0  0  0  0  0  0  0  0  0  0
   -3.8153    3.5659   -1.1221 H   0  0  0  0  0  0  0  0  0  0  0  0
    1.4844    2.9438    2.8770 H   0  0  0  0  0  0  0  0  0  0  0  0
    0.3960    3.5644    7.3739 C   0  0  0  0  0  0  0  0  0  0  0  0
    0.6576    2.3165    6.7883 C   0  0  0  0  0  0  0  0  0  0  0  0
    1.8365    2.1034    6.0166 C   0  0  0  0  0  0  0  0  0  0  0  0
    2.5969    3.3077    5.7319 C   0  0  0  0  0  0  0  0  0  0  0  0
    2.2724    4.5714    6.2990 C   0  0  0  0  0  0  0  0  0  0  0  0
    1.2013    4.6575    7.1251 C   0  0  0  0  0  0  0  0  0  0  0  0
    2.4158    0.8451    5.5935 C   0  0  0  0  0  0  0  0  0  0  0  0
    3.5965    0.9598    4.8161 C   0  0  0  0  0  0  0  0  0  0  0  0
    4.0802    2.2288    4.3741 C   0  0  0  0  0  0  0  0  0  0  0  0
    3.6392    3.3357    4.9290 N   0  0  0  0  0  0  0  0  0  0  0  0
    2.0720   -0.5290    5.9528 C   0  0  0  0  0  0  0  0  0  0  0  0
    3.1932   -1.4560    5.9382 C   0  0  0  0  0  0  0  0  0  0  0  0
    4.2830   -1.2739    5.2242 N   0  0  0  0  0  0  0  0  0  0  0  0
    4.4097   -0.1707    4.5017 C   0  0  0  0  0  0  0  0  0  0  0  0
    5.4153   -0.0835    3.5182 C   0  0  0  0  0  0  0  0  0  0  0  0
    5.6574    1.1422    2.9443 C   0  0  0  0  0  0  0  0  0  0  0  0
    5.0796    2.3037    3.3751 C   0  0  0  0  0  0  0  0  0  0  0  0
    0.8286   -1.1540    6.2459 C   0  0  0  0  0  0  0  0  0  0  0  0
    0.8053   -2.4567    6.7990 C   0  0  0  0  0  0  0  0  0  0  0  0
    1.9408   -3.2207    6.9470 C   0  0  0  0  0  0  0  0  0  0  0  0
    3.1495   -2.7436    6.5523 C   0  0  0  0  0  0  0  0  0  0  0  0
   -0.2593    1.3930    6.9923 O   0  0  0  0  0  0  0  0  0  0  0  0
   -0.3757   -0.7256    5.9456 O   0  0  0  0  0  0  0  0  0  0  0  0
   -3.0063   -1.5710    6.7331 C   0  0  0  0  0  0  0  0  0  0  0  0
   -2.9295   -0.5064    5.8321 C   0  0  0  0  0  0  0  0  0  0  0  0
   -3.4837   -0.6273    4.5362 C   0  0  0  0  0  0  0  0  0  0  0  0
   -4.1405   -1.8754    4.2249 C   0  0  0  0  0  0  0  0  0  0  0  0
   -4.1031   -2.9753    5.1295 C   0  0  0  0  0  0  0  0  0  0  0  0
   -3.5623   -2.7775    6.3587 C   0  0  0  0  0  0  0  0  0  0  0  0
   -3.5742    0.4501    3.5814 C   0  0  0  0  0  0  0  0  0  0  0  0
   -4.5860    0.2773    2.6048 C   0  0  0  0  0  0  0  0  0  0  0  0
   -5.2245   -0.9870    2.4294 C   0  0  0  0  0  0  0  0  0  0  0  0
   -4.8971   -2.0532    3.1515 N   0  0  0  0  0  0  0  0  0  0  0  0
   -2.8914    1.7231    3.5791 C   0  0  0  0  0  0  0  0  0  0  0  0
   -3.5753    2.7970    2.8853 C   0  0  0  0  0  0  0  0  0  0  0  0
   -4.5842    2.6087    2.0509 N   0  0  0  0  0  0  0  0  0  0  0  0
   -5.0558    1.3873    1.8437 C   0  0  0  0  0  0  0  0  0  0  0  0
   -6.1513    1.2324    0.9585 C   0  0  0  0  0  0  0  0  0  0  0  0
   -6.7489    0.0014    0.8571 C   0  0  0  0  0  0  0  0  0  0  0  0
   -6.2988   -1.1123    1.5198 C   0  0  0  0  0  0  0  0  0  0  0  0
   -1.6147    2.0633    4.1134 C   0  0  0  0  0  0  0  0  0  0  0  0
   -1.2112    3.4051    4.1324 C   0  0  0  0  0  0  0  0  0  0  0  0
   -2.0315    4.4321    3.7030 C   0  0  0  0  0  0  0  0  0  0  0  0
   -3.1985    4.1590    3.0676 C   0  0  0  0  0  0  0  0  0  0  0  0
   -2.3173    0.5999    6.2316 O   0  0  0  0  0  0  0  0  0  0  0  0
   -0.7287    1.1917    4.5785 O   0  0  0  0  0  0  0  0  0  0  0  0
   -0.8849    0.6313    5.9336 B   0  0  0  0  0  0  0  0  0  0  0  0
    0.8089    6.2686    7.9380 S   0  0  0  0  0  0  0  0  0  0  0  0
   -0.7955    6.1663    7.6301 F   0  0  0  0  0  0  0  0  0  0  0  0
    0.5386    5.4787    9.3785 F   0  0  0  0  0  0  0  0  0  0  0  0
    0.5126    7.6377    8.7323 F   0  0  0  0  0  0  0  0  0  0  0  0
    2.3995    6.4396    8.3873 F   0  0  0  0  0  0  0  0  0  0  0  0
    1.1217    7.1689    6.6157 F   0  0  0  0  0  0  0  0  0  0  0  0
    1.7759   -4.9530    7.5803 S   0  0  0  0  0  0  0  0  0  0  0  0
    2.1186   -5.6048    6.1232 F   0  0  0  0  0  0  0  0  0  0  0  0
    3.3859   -5.0057    7.9807 F   0  0  0  0  0  0  0  0  0  0  0  0
    1.6758   -6.4373    8.1875 F   0  0  0  0  0  0  0  0  0  0  0  0
    1.4560   -4.3742    9.1006 F   0  0  0  0  0  0  0  0  0  0  0  0
    0.1775   -5.0319    7.2801 F   0  0  0  0  0  0  0  0  0  0  0  0
    6.7708    1.2303    1.4752 S   0  0  0  0  0  0  0  0  0  0  0  0
    5.6029    2.0894    0.6358 F   0  0  0  0  0  0  0  0  0  0  0  0
    6.0887   -0.1744    0.8694 F   0  0  0  0  0  0  0  0  0  0  0  0
    7.6426    1.2694    0.1213 F   0  0  0  0  0  0  0  0  0  0  0  0
    7.9647    0.3407    2.1727 F   0  0  0  0  0  0  0  0  0  0  0  0
    7.4897    2.6303    1.9350 F   0  0  0  0  0  0  0  0  0  0  0  0
   -3.5443   -4.1198    7.6328 S   0  0  0  0  0  0  0  0  0  0  0  0
   -3.0331   -5.2835    6.6128 F   0  0  0  0  0  0  0  0  0  0  0  0
   -5.1093   -4.5378    7.2760 F   0  0  0  0  0  0  0  0  0  0  0  0
   -3.5702   -5.2301    8.7941 F   0  0  0  0  0  0  0  0  0  0  0  0
   -4.1276   -3.0534    8.7698 F   0  0  0  0  0  0  0  0  0  0  0  0
   -2.0157   -3.7274    8.1071 F   0  0  0  0  0  0  0  0  0  0  0  0
   -1.6318    6.1744    4.2235 S   0  0  0  0  0  0  0  0  0  0  0  0
   -2.8950    6.8138    3.3728 F   0  0  0  0  0  0  0  0  0  0  0  0
   -2.6647    5.9126    5.5034 F   0  0  0  0  0  0  0  0  0  0  0  0
   -1.3817    7.6407    4.8206 F   0  0  0  0  0  0  0  0  0  0  0  0
   -0.3596    5.6588    5.1639 F   0  0  0  0  0  0  0  0  0  0  0  0
   -0.6315    6.5484    2.9998 F   0  0  0  0  0  0  0  0  0  0  0  0
   -8.3132   -0.1635   -0.1217 S   0  0  0  0  0  0  0  0  0  0  0  0
   -7.6532    0.6693   -1.3898 F   0  0  0  0  0  0  0  0  0  0  0  0
   -8.9176    1.2489    0.4782 F   0  0  0  0  0  0  0  0  0  0  0  0
   -9.6464   -0.3290   -0.9794 F   0  0  0  0  0  0  0  0  0  0  0  0
   -9.0469   -0.9991    1.0957 F   0  0  0  0  0  0  0  0  0  0  0  0
   -7.7684   -1.5987   -0.7665 F   0  0  0  0  0  0  0  0  0  0  0  0
   -4.5650   -3.9033    4.8399 H   0  0  0  0  0  0  0  0  0  0  0  0
   -6.7918   -2.0660    1.4311 H   0  0  0  0  0  0  0  0  0  0  0  0
   -6.5358    2.0992    0.4479 H   0  0  0  0  0  0  0  0  0  0  0  0
   -2.5936   -1.4306    7.7181 H   0  0  0  0  0  0  0  0  0  0  0  0
   -0.2430    3.6277    4.5416 H   0  0  0  0  0  0  0  0  0  0  0  0
    5.3291    3.2743    2.9793 H   0  0  0  0  0  0  0  0  0  0  0  0
   -0.1602   -2.8487    7.0735 H   0  0  0  0  0  0  0  0  0  0  0  0
    5.9589   -0.9732    3.2452 H   0  0  0  0  0  0  0  0  0  0  0  0
    2.8735    5.4189    6.0179 H   0  0  0  0  0  0  0  0  0  0  0  0
    4.0513   -3.3306    6.5488 H   0  0  0  0  0  0  0  0  0  0  0  0
   -3.8467    4.9147    2.6608 H   0  0  0  0  0  0  0  0  0  0  0  0
   -0.4848    3.6559    7.9886 H   0  0  0  0  0  0  0  0  0  0  0  0
  1  2  4  0  0  0  0
  2  3  4  0  0  0  0
  3  4  1  0  0  0  0
  4  5  4  0  0  0  0
  1  6  4  0  0  0  0
  5  6  2  0  0  0  0
  3  7  4  0  0  0  0
  7  8  4  0  0  0  0
  8  9  1  0  0  0  0
  4 10  4  0  0  0  0
  9 10  4  0  0  0  0
  7 11  4  0  0  0  0
 11 12  1  0  0  0  0
 12 13  4  0  0  0  0
  8 14  1  0  0  0  0
 13 14  4  0  0  0  0
 14 15  4  0  0  0  0
 15 16  4  0  0  0  0
  9 17  4  0  0  0  0
 16 17  4  0  0  0  0
 11 18  4  0  0  0  0
 18 19  4  0  0  0  0
 19 20  4  0  0  0  0
 12 21  4  0  0  0  0
 20 21  2  0  0  0  0
  2 22  1  0  0  0  0
 18 23  1  0  0  0  0
 24 25  4  0  0  0  0
 25 26  4  0  0  0  0
 26 27  1  0  0  0  0
 27 28  4  0  0  0  0
 24 29  4  0  0  0  0
 28 29  2  0  0  0  0
 26 30  4  0  0  0  0
 30 31  4  0  0  0  0
 31 32  1  0  0  0  0
 27 33  4  0  0  0  0
 32 33  4  0  0  0  0
 30 34  1  0  0  0  0
 34 35  1  0  0  0  0
 35 36  4  0  0  0  0
 31 37  1  0  0  0  0
 36 37  4  0  0  0  0
 37 38  4  0  0  0  0
 38 39  4  0  0  0  0
 32 40  4  0  0  0  0
 39 40  4  0  0  0  0
 34 41  4  0  0  0  0
 41 42  4  0  0  0  0
 42 43  4  0  0  0  0
 35 44  4  0  0  0  0
 43 44  2  0  0  0  0
 25 45  1  0  0  0  0
 41 46  1  0  0  0  0
 22 47  1  0  0  0  0
 23 47  1  0  0  0  0
 45 47  1  0  0  0  0
 46 47  1  0  0  0  0
  6 48  1  0  0  0  0
 48 49  1  0  0  0  0
 48 50  1  0  0  0  0
 48 51  1  0  0  0  0
 48 52  1  0  0  0  0
 48 53  1  0  0  0  0
 20 54  1  0  0  0  0
 54 55  1  0  0  0  0
 54 56  1  0  0  0  0
 54 57  1  0  0  0  0
 54 58  1  0  0  0  0
 54 59  1  0  0  0  0
 16 60  1  0  0  0  0
 60 61  1  0  0  0  0
 60 62  1  0  0  0  0
 60 63  1  0  0  0  0
 60 64  1  0  0  0  0
 60 65  1  0  0  0  0
 29 66  1  0  0  0  0
 66 67  1  0  0  0  0
 66 68  1  0  0  0  0
 66 69  1  0  0  0  0
 66 70  1  0  0  0  0
 66 71  1  0  0  0  0
 43 72  1  0  0  0  0
 72 73  1  0  0  0  0
 72 74  1  0  0  0  0
 72 75  1  0  0  0  0
 72 76  1  0  0  0  0
 72 77  1  0  0  0  0
 39 78  1  0  0  0  0
 78 79  1  0  0  0  0
 78 80  1  0  0  0  0
 78 81  1  0  0  0  0
 78 82  1  0  0  0  0
 78 83  1  0  0  0  0
 28 84  1  0  0  0  0
 40 85  1  0  0  0  0
 38 86  1  0  0  0  0
 24 87  1  0  0  0  0
 42 88  1  0  0  0  0
 17 89  1  0  0  0  0
 19 90  1  0  0  0  0
 15 91  1  0  0  0  0
  5 92  1  0  0  0  0
 21 93  1  0  0  0  0
 44 94  1  0  0  0  0
  1 95  1  0  0  0  0
 96 97  4  0  0  0  0
 97 98  4  0  0  0  0
 98 99  1  0  0  0  0
 99100  4  0  0  0  0
 96101  4  0  0  0  0
100101  2  0  0  0  0
 98102  4  0  0  0  0
102103  4  0  0  0  0
103104  1  0  0  0  0
 99105  4  0  0  0  0
104105  4  0  0  0  0
102106  1  0  0  0  0
106107  1  0  0  0  0
107108  4  0  0  0  0
103109  1  0  0  0  0
108109  4  0  0  0  0
109110  4  0  0  0  0
110111  4  0  0  0  0
104112  4  0  0  0  0
111112  4  0  0  0  0
106113  4  0  0  0  0
113114  4  0  0  0  0
114115  4  0  0  0  0
107116  1  0  0  0  0
115116  2  0  0  0  0
 97117  1  0  0  0  0
113118  1  0  0  0  0
119120  4  0  0  0  0
120121  4  0  0  0  0
121122  1  0  0  0  0
122123  4  0  0  0  0
119124  4  0  0  0  0
123124  2  0  0  0  0
121125  4  0  0  0  0
125126  4  0  0  0  0
126127  1  0  0  0  0
122128  4  0  0  0  0
127128  4  0  0  0  0
125129  4  0  0  0  0
129130  1  0  0  0  0
130131  4  0  0  0  0
126132  1  0  0  0  0
131132  4  0  0  0  0
132133  4  0  0  0  0
133134  4  0  0  0  0
127135  4  0  0  0  0
134135  4  0  0  0  0
129136  4  0  0  0  0
136137  4  0  0  0  0
137138  4  0  0  0  0
130139  1  0  0  0  0
138139  2  0  0  0  0
120140  1  0  0  0  0
136141  1  0  0  0  0
117142  1  0  0  0  0
118142  1  0  0  0  0
140142  1  0  0  0  0
141142  1  0  0  0  0
101143  1  0  0  0  0
143144  1  0  0  0  0
143145  1  0  0  0  0
143146  1  0  0  0  0
143147  1  0  0  0  0
143148  1  0  0  0  0
115149  1  0  0  0  0
149150  1  0  0  0  0
149151  1  0  0  0  0
149152  1  0  0  0  0
149153  1  0  0  0  0
149154  1  0  0  0  0
111155  1  0  0  0  0
155156  1  0  0  0  0
155157  1  0  0  0  0
155158  1  0  0  0  0
155159  1  0  0  0  0
155160  1  0  0  0  0
124161  1  0  0  0  0
161162  1  0  0  0  0
161163  1  0  0  0  0
161164  1  0  0  0  0
161165  1  0  0  0  0
161166  1  0  0  0  0
138167  1  0  0  0  0
167168  1  0  0  0  0
167169  1  0  0  0  0
167170  1  0  0  0  0
167171  1  0  0  0  0
167172  1  0  0  0  0
134173  1  0  0  0  0
173174  1  0  0  0  0
173175  1  0  0  0  0
173176  1  0  0  0  0
173177  1  0  0  0  0
173178  1  0  0  0  0
123179  1  0  0  0  0
135180  1  0  0  0  0
133181  1  0  0  0  0
119182  1  0  0  0  0
137183  1  0  0  0  0
112184  1  0  0  0  0
114185  1  0  0  0  0
110186  1  0  0  0  0
100187  1  0  0  0  0
116188  1  0  0  0  0
139189  1  0  0  0  0
 96190  1  0  0  0  0
M  CHG  1  13   1
M  CHG  1  47  -1
M  CHG  1 108   1
M  CHG  1 142  -1
M  END
