 xtb: 6.7.1 (edcfbbe)
          12102416293D

274296  0     0  0            999 V2000
   -2.3527   -2.6028    1.2670 C   0  0  0  0  0  0  0  0  0  0  0  0
   -2.6628   -1.3245    0.7982 C   0  0  0  0  0  0  0  0  0  0  0  0
   -3.7678   -1.1454   -0.0838 C   0  0  0  0  0  0  0  0  0  0  0  0
   -4.3653   -2.3646   -0.5766 C   0  0  0  0  0  0  0  0  0  0  0  0
   -3.9672   -3.6335   -0.1022 C   0  0  0  0  0  0  0  0  0  0  0  0
   -3.0275   -3.7681    0.8872 C   0  0  0  0  0  0  0  0  0  0  0  0
   -4.4594    0.0670   -0.4247 C   0  0  0  0  0  0  0  0  0  0  0  0
   -5.6875   -0.0655   -1.1047 C   0  0  0  0  0  0  0  0  0  0  0  0
   -6.0677   -1.3025   -1.6867 C   0  0  0  0  0  0  0  0  0  0  0  0
   -5.3879   -2.4145   -1.4304 N   0  0  0  0  0  0  0  0  0  0  0  0
   -4.1401    1.4172   -0.0671 C   0  0  0  0  0  0  0  0  0  0  0  0
   -5.2167    2.3678    0.0132 C   0  0  0  0  0  0  0  0  0  0  0  0
   -6.4113    2.1585   -0.5299 N   0  0  0  0  0  0  0  0  0  0  0  0
   -6.6029    1.0177   -1.1978 C   0  0  0  0  0  0  0  0  0  0  0  0
   -7.7867    0.8683   -1.9379 C   0  0  0  0  0  0  0  0  0  0  0  0
   -8.0943   -0.3067   -2.6170 C   0  0  0  0  0  0  0  0  0  0  0  0
   -7.2311   -1.3814   -2.4852 C   0  0  0  0  0  0  0  0  0  0  0  0
   -2.8407    1.9297    0.1067 C   0  0  0  0  0  0  0  0  0  0  0  0
   -2.6752    3.1721    0.7132 C   0  0  0  0  0  0  0  0  0  0  0  0
   -3.7417    4.0429    0.9641 C   0  0  0  0  0  0  0  0  0  0  0  0
   -4.9971    3.6440    0.5759 C   0  0  0  0  0  0  0  0  0  0  0  0
   -1.9202   -0.3431    1.3315 O   0  0  0  0  0  0  0  0  0  0  0  0
   -1.8034    1.2628   -0.4124 O   0  0  0  0  0  0  0  0  0  0  0  0
   -1.0032    0.4555    0.5077 B   0  0  0  0  0  0  0  0  0  0  0  0
    0.3970   -2.5613   -0.5277 C   0  0  0  0  0  0  0  0  0  0  0  0
    0.6778   -1.3335    0.0792 C   0  0  0  0  0  0  0  0  0  0  0  0
    1.8146   -1.2139    0.9358 C   0  0  0  0  0  0  0  0  0  0  0  0
    2.4818   -2.4566    1.2398 C   0  0  0  0  0  0  0  0  0  0  0  0
    2.1050   -3.6797    0.6385 C   0  0  0  0  0  0  0  0  0  0  0  0
    1.1251   -3.7338   -0.3217 C   0  0  0  0  0  0  0  0  0  0  0  0
    2.5031   -0.0200    1.3516 C   0  0  0  0  0  0  0  0  0  0  0  0
    3.7905   -0.1800    1.9096 C   0  0  0  0  0  0  0  0  0  0  0  0
    4.2621   -1.4585    2.2923 C   0  0  0  0  0  0  0  0  0  0  0  0
    3.5824   -2.5596    1.9892 N   0  0  0  0  0  0  0  0  0  0  0  0
    2.1642    1.3302    1.0335 C   0  0  0  0  0  0  0  0  0  0  0  0
    3.2529    2.2556    0.8577 C   0  0  0  0  0  0  0  0  0  0  0  0
    4.4468    2.0756    1.4116 N   0  0  0  0  0  0  0  0  0  0  0  0
    4.6924    0.9126    2.0185 C   0  0  0  0  0  0  0  0  0  0  0  0
    5.9732    0.7196    2.5765 C   0  0  0  0  0  0  0  0  0  0  0  0
    6.4201   -0.5330    2.9818 C   0  0  0  0  0  0  0  0  0  0  0  0
    5.5406   -1.6011    2.8721 C   0  0  0  0  0  0  0  0  0  0  0  0
    0.8702    1.8477    0.8115 C   0  0  0  0  0  0  0  0  0  0  0  0
    0.7422    2.9547   -0.0246 C   0  0  0  0  0  0  0  0  0  0  0  0
    1.8382    3.6938   -0.4876 C   0  0  0  0  0  0  0  0  0  0  0  0
    3.0691    3.4013    0.0504 C   0  0  0  0  0  0  0  0  0  0  0  0
   -0.1873    1.2716    1.3827 O   0  0  0  0  0  0  0  0  0  0  0  0
   -0.1130   -0.3449   -0.3463 O   0  0  0  0  0  0  0  0  0  0  0  0
   -2.8261   -5.0915    1.6036 C   0  0  0  0  0  0  0  0  0  0  0  0
   -1.4992   -5.1271    2.3639 C   0  0  0  0  0  0  0  0  0  0  0  0
   -2.8893   -6.2858    0.6435 C   0  0  0  0  0  0  0  0  0  0  0  0
   -3.9798   -5.2101    2.6133 C   0  0  0  0  0  0  0  0  0  0  0  0
   -3.5201    5.4444    1.5069 C   0  0  0  0  0  0  0  0  0  0  0  0
   -4.5762    5.7458    2.5785 C   0  0  0  0  0  0  0  0  0  0  0  0
   -2.1276    5.6221    2.1174 C   0  0  0  0  0  0  0  0  0  0  0  0
   -3.6689    6.4330    0.3399 C   0  0  0  0  0  0  0  0  0  0  0  0
   -9.3791   -0.3697   -3.4267 C   0  0  0  0  0  0  0  0  0  0  0  0
   -9.5513   -1.7081   -4.1478 C   0  0  0  0  0  0  0  0  0  0  0  0
   -9.3625    0.7475   -4.4791 C   0  0  0  0  0  0  0  0  0  0  0  0
  -10.5667   -0.1725   -2.4739 C   0  0  0  0  0  0  0  0  0  0  0  0
    0.9503   -4.9611   -1.2010 C   0  0  0  0  0  0  0  0  0  0  0  0
   -0.3452   -4.9077   -2.0159 C   0  0  0  0  0  0  0  0  0  0  0  0
    0.9768   -6.2595   -0.3862 C   0  0  0  0  0  0  0  0  0  0  0  0
    2.1404   -4.9661   -2.1754 C   0  0  0  0  0  0  0  0  0  0  0  0
    1.6986    4.7849   -1.5374 C   0  0  0  0  0  0  0  0  0  0  0  0
    2.5489    4.3704   -2.7479 C   0  0  0  0  0  0  0  0  0  0  0  0
    2.2054    6.1229   -0.9851 C   0  0  0  0  0  0  0  0  0  0  0  0
    0.2534    4.9716   -2.0062 C   0  0  0  0  0  0  0  0  0  0  0  0
    7.8731   -0.7895    3.3568 C   0  0  0  0  0  0  0  0  0  0  0  0
    8.6433    0.5040    3.6362 C   0  0  0  0  0  0  0  0  0  0  0  0
    7.9876   -1.6984    4.5844 C   0  0  0  0  0  0  0  0  0  0  0  0
    8.5183   -1.4932    2.1507 C   0  0  0  0  0  0  0  0  0  0  0  0
  -11.5018   -0.2268   -3.0266 H   0  0  0  0  0  0  0  0  0  0  0  0
  -10.5195    0.7923   -1.9768 H   0  0  0  0  0  0  0  0  0  0  0  0
  -10.5697   -0.9494   -1.7122 H   0  0  0  0  0  0  0  0  0  0  0  0
  -10.4694   -1.6892   -4.7313 H   0  0  0  0  0  0  0  0  0  0  0  0
   -9.6213   -2.5292   -3.4387 H   0  0  0  0  0  0  0  0  0  0  0  0
   -8.7234   -1.8935   -4.8279 H   0  0  0  0  0  0  0  0  0  0  0  0
  -10.2692    0.7086   -5.0785 H   0  0  0  0  0  0  0  0  0  0  0  0
   -8.5068    0.6288   -5.1403 H   0  0  0  0  0  0  0  0  0  0  0  0
   -9.3026    1.7291   -4.0177 H   0  0  0  0  0  0  0  0  0  0  0  0
   -3.8638   -6.1154    3.2061 H   0  0  0  0  0  0  0  0  0  0  0  0
   -4.9352   -5.2571    2.0948 H   0  0  0  0  0  0  0  0  0  0  0  0
   -3.9818   -4.3453    3.2733 H   0  0  0  0  0  0  0  0  0  0  0  0
   -1.3219   -6.1276    2.7533 H   0  0  0  0  0  0  0  0  0  0  0  0
   -1.5188   -4.4413    3.2052 H   0  0  0  0  0  0  0  0  0  0  0  0
   -0.6716   -4.8548    1.7138 H   0  0  0  0  0  0  0  0  0  0  0  0
   -2.6883   -7.2044    1.1913 H   0  0  0  0  0  0  0  0  0  0  0  0
   -2.1536   -6.1926   -0.1493 H   0  0  0  0  0  0  0  0  0  0  0  0
   -3.8720   -6.3810    0.1908 H   0  0  0  0  0  0  0  0  0  0  0  0
   -0.4972   -5.8564   -2.5270 H   0  0  0  0  0  0  0  0  0  0  0  0
   -0.2973   -4.1275   -2.7713 H   0  0  0  0  0  0  0  0  0  0  0  0
   -1.2041   -4.7165   -1.3771 H   0  0  0  0  0  0  0  0  0  0  0  0
    2.0541   -5.8012   -2.8672 H   0  0  0  0  0  0  0  0  0  0  0  0
    3.0799   -5.0570   -1.6356 H   0  0  0  0  0  0  0  0  0  0  0  0
    2.1651   -4.0420   -2.7488 H   0  0  0  0  0  0  0  0  0  0  0  0
    0.8691   -7.1122   -1.0536 H   0  0  0  0  0  0  0  0  0  0  0  0
    0.1640   -6.2833    0.3327 H   0  0  0  0  0  0  0  0  0  0  0  0
    1.9141   -6.3730    0.1502 H   0  0  0  0  0  0  0  0  0  0  0  0
   -4.3139    6.6524    3.1198 H   0  0  0  0  0  0  0  0  0  0  0  0
   -4.6381    4.9157    3.2764 H   0  0  0  0  0  0  0  0  0  0  0  0
   -5.5561    5.8946    2.1338 H   0  0  0  0  0  0  0  0  0  0  0  0
    2.1322    6.8920   -1.7513 H   0  0  0  0  0  0  0  0  0  0  0  0
    3.2422    6.0528   -0.6700 H   0  0  0  0  0  0  0  0  0  0  0  0
    1.6047    6.4284   -0.1317 H   0  0  0  0  0  0  0  0  0  0  0  0
   -2.0548    6.6107    2.5664 H   0  0  0  0  0  0  0  0  0  0  0  0
   -1.3485    5.5476    1.3621 H   0  0  0  0  0  0  0  0  0  0  0  0
   -1.9454    4.8788    2.8890 H   0  0  0  0  0  0  0  0  0  0  0  0
   -3.5280    7.4522    0.6938 H   0  0  0  0  0  0  0  0  0  0  0  0
   -4.6544    6.3560   -0.1119 H   0  0  0  0  0  0  0  0  0  0  0  0
   -2.9270    6.2281   -0.4294 H   0  0  0  0  0  0  0  0  0  0  0  0
    2.4651    5.1127   -3.5390 H   0  0  0  0  0  0  0  0  0  0  0  0
    2.2071    3.4129   -3.1346 H   0  0  0  0  0  0  0  0  0  0  0  0
    3.5964    4.2739   -2.4758 H   0  0  0  0  0  0  0  0  0  0  0  0
    0.2213    5.7297   -2.7866 H   0  0  0  0  0  0  0  0  0  0  0  0
   -0.3843    5.3042   -1.1901 H   0  0  0  0  0  0  0  0  0  0  0  0
   -0.1484    4.0482   -2.4159 H   0  0  0  0  0  0  0  0  0  0  0  0
    8.4377   -0.8729    1.2606 H   0  0  0  0  0  0  0  0  0  0  0  0
    8.0302   -2.4435    1.9493 H   0  0  0  0  0  0  0  0  0  0  0  0
    9.5715   -1.6800    2.3483 H   0  0  0  0  0  0  0  0  0  0  0  0
    7.5264   -1.2314    5.4479 H   0  0  0  0  0  0  0  0  0  0  0  0
    9.0362   -1.8758    4.8142 H   0  0  0  0  0  0  0  0  0  0  0  0
    7.5145   -2.6625    4.4236 H   0  0  0  0  0  0  0  0  0  0  0  0
    8.1441    1.1068    4.3899 H   0  0  0  0  0  0  0  0  0  0  0  0
    8.7582    1.0953    2.7312 H   0  0  0  0  0  0  0  0  0  0  0  0
    9.6388    0.2602    4.0016 H   0  0  0  0  0  0  0  0  0  0  0  0
    6.6134    1.5855    2.6012 H   0  0  0  0  0  0  0  0  0  0  0  0
    5.8281   -2.6018    3.1520 H   0  0  0  0  0  0  0  0  0  0  0  0
    2.7156   -4.5321    0.8876 H   0  0  0  0  0  0  0  0  0  0  0  0
    3.9436    3.9965   -0.1527 H   0  0  0  0  0  0  0  0  0  0  0  0
   -5.8521    4.2976    0.6212 H   0  0  0  0  0  0  0  0  0  0  0  0
   -4.5126   -4.4697   -0.5070 H   0  0  0  0  0  0  0  0  0  0  0  0
   -8.4481    1.7196   -1.9540 H   0  0  0  0  0  0  0  0  0  0  0  0
   -7.4226   -2.3335   -2.9496 H   0  0  0  0  0  0  0  0  0  0  0  0
   -0.4305   -2.5367   -1.2179 H   0  0  0  0  0  0  0  0  0  0  0  0
   -1.5381   -2.6412    1.9714 H   0  0  0  0  0  0  0  0  0  0  0  0
   -1.6728    3.4564    0.9772 H   0  0  0  0  0  0  0  0  0  0  0  0
   -0.2500    3.1933   -0.3605 H   0  0  0  0  0  0  0  0  0  0  0  0
   -0.2853   -2.0695    6.5068 C   0  0  0  0  0  0  0  0  0  0  0  0
   -0.5252   -0.9269    5.7377 C   0  0  0  0  0  0  0  0  0  0  0  0
   -1.6604   -0.8855    4.8714 C   0  0  0  0  0  0  0  0  0  0  0  0
   -2.3722   -2.1338    4.7400 C   0  0  0  0  0  0  0  0  0  0  0  0
   -2.0366   -3.2755    5.5037 C   0  0  0  0  0  0  0  0  0  0  0  0
   -1.0550   -3.2326    6.4627 C   0  0  0  0  0  0  0  0  0  0  0  0
   -2.3079    0.2634    4.2943 C   0  0  0  0  0  0  0  0  0  0  0  0
   -3.6018    0.0739    3.7608 C   0  0  0  0  0  0  0  0  0  0  0  0
   -4.1195   -1.2276    3.5567 C   0  0  0  0  0  0  0  0  0  0  0  0
   -3.4783   -2.2997    4.0103 N   0  0  0  0  0  0  0  0  0  0  0  0
   -1.9210    1.6317    4.4248 C   0  0  0  0  0  0  0  0  0  0  0  0
   -2.9758    2.6104    4.4694 C   0  0  0  0  0  0  0  0  0  0  0  0
   -4.1768    2.3983    3.9428 N   0  0  0  0  0  0  0  0  0  0  0  0
   -4.4648    1.1723    3.5009 C   0  0  0  0  0  0  0  0  0  0  0  0
   -5.7533    0.9500    2.9722 C   0  0  0  0  0  0  0  0  0  0  0  0
   -6.2453   -0.3298    2.7418 C   0  0  0  0  0  0  0  0  0  0  0  0
   -5.4039   -1.4031    2.9994 C   0  0  0  0  0  0  0  0  0  0  0  0
   -0.6090    2.1285    4.5771 C   0  0  0  0  0  0  0  0  0  0  0  0
   -0.4402    3.3337    5.2552 C   0  0  0  0  0  0  0  0  0  0  0  0
   -1.5081    4.1680    5.6090 C   0  0  0  0  0  0  0  0  0  0  0  0
   -2.7496    3.8488    5.1120 C   0  0  0  0  0  0  0  0  0  0  0  0
    0.3014    0.0819    6.0257 O   0  0  0  0  0  0  0  0  0  0  0  0
    0.4256    1.4425    4.0922 O   0  0  0  0  0  0  0  0  0  0  0  0
    1.2164    0.7281    5.0730 B   0  0  0  0  0  0  0  0  0  0  0  0
    2.4650   -2.4462    4.7455 C   0  0  0  0  0  0  0  0  0  0  0  0
    2.8190   -1.1264    5.0337 C   0  0  0  0  0  0  0  0  0  0  0  0
    3.9327   -0.8638    5.8833 C   0  0  0  0  0  0  0  0  0  0  0  0
    4.4936   -2.0236    6.5379 C   0  0  0  0  0  0  0  0  0  0  0  0
    4.0528   -3.3322    6.2410 C   0  0  0  0  0  0  0  0  0  0  0  0
    3.1035   -3.5702    5.2810 C   0  0  0  0  0  0  0  0  0  0  0  0
    4.6620    0.3620    6.0584 C   0  0  0  0  0  0  0  0  0  0  0  0
    5.8866    0.2855    6.7534 C   0  0  0  0  0  0  0  0  0  0  0  0
    6.2304   -0.8738    7.4969 C   0  0  0  0  0  0  0  0  0  0  0  0
    5.5164   -1.9900    7.3912 N   0  0  0  0  0  0  0  0  0  0  0  0
    4.3838    1.6600    5.5197 C   0  0  0  0  0  0  0  0  0  0  0  0
    5.4888    2.5578    5.3162 C   0  0  0  0  0  0  0  0  0  0  0  0
    6.6758    2.3884    5.8899 N   0  0  0  0  0  0  0  0  0  0  0  0
    6.8331    1.3437    6.7056 C   0  0  0  0  0  0  0  0  0  0  0  0
    8.0135    1.2679    7.4684 C   0  0  0  0  0  0  0  0  0  0  0  0
    8.2841    0.1885    8.2969 C   0  0  0  0  0  0  0  0  0  0  0  0
    7.3895   -0.8739    8.2995 C   0  0  0  0  0  0  0  0  0  0  0  0
    3.1009    2.1836    5.2724 C   0  0  0  0  0  0  0  0  0  0  0  0
    2.9738    3.3353    4.5002 C   0  0  0  0  0  0  0  0  0  0  0  0
    4.0665    4.1311    4.1384 C   0  0  0  0  0  0  0  0  0  0  0  0
    5.3089    3.7516    4.5845 C   0  0  0  0  0  0  0  0  0  0  0  0
    2.0442    1.6272    5.8758 O   0  0  0  0  0  0  0  0  0  0  0  0
    2.1062   -0.2046    4.3694 O   0  0  0  0  0  0  0  0  0  0  0  0
   -0.9197   -4.3339    7.5016 C   0  0  0  0  0  0  0  0  0  0  0  0
    0.3785   -4.2135    8.3049 C   0  0  0  0  0  0  0  0  0  0  0  0
   -0.9910   -5.7295    6.8711 C   0  0  0  0  0  0  0  0  0  0  0  0
   -2.1073   -4.1663    8.4646 C   0  0  0  0  0  0  0  0  0  0  0  0
   -1.3275    5.3877    6.4987 C   0  0  0  0  0  0  0  0  0  0  0  0
   -2.1935    5.1778    7.7501 C   0  0  0  0  0  0  0  0  0  0  0  0
    0.1235    5.5829    6.9455 C   0  0  0  0  0  0  0  0  0  0  0  0
   -1.7825    6.6543    5.7632 C   0  0  0  0  0  0  0  0  0  0  0  0
   -7.7074   -0.5836    2.4019 C   0  0  0  0  0  0  0  0  0  0  0  0
   -7.8567   -1.6405    1.3034 C   0  0  0  0  0  0  0  0  0  0  0  0
   -8.4349    0.6873    1.9546 C   0  0  0  0  0  0  0  0  0  0  0  0
   -8.3723   -1.1015    3.6887 C   0  0  0  0  0  0  0  0  0  0  0  0
    2.8538   -4.9721    4.7540 C   0  0  0  0  0  0  0  0  0  0  0  0
    1.5228   -5.0664    4.0059 C   0  0  0  0  0  0  0  0  0  0  0  0
    2.8804   -6.0237    5.8700 C   0  0  0  0  0  0  0  0  0  0  0  0
    3.9978   -5.2687    3.7702 C   0  0  0  0  0  0  0  0  0  0  0  0
    3.8886    5.4513    3.4081 C   0  0  0  0  0  0  0  0  0  0  0  0
    4.9527    5.5701    2.3092 C   0  0  0  0  0  0  0  0  0  0  0  0
    4.0690    6.5853    4.4294 C   0  0  0  0  0  0  0  0  0  0  0  0
    2.5019    5.5871    2.7740 C   0  0  0  0  0  0  0  0  0  0  0  0
    9.5363    0.1171    9.1562 C   0  0  0  0  0  0  0  0  0  0  0  0
   10.3839    1.3886    9.0636 C   0  0  0  0  0  0  0  0  0  0  0  0
    9.1246   -0.0804   10.6211 C   0  0  0  0  0  0  0  0  0  0  0  0
   10.3884   -1.0691    8.6846 C   0  0  0  0  0  0  0  0  0  0  0  0
   -9.4325   -1.2733    3.5168 H   0  0  0  0  0  0  0  0  0  0  0  0
   -8.2650   -0.3748    4.4913 H   0  0  0  0  0  0  0  0  0  0  0  0
   -7.9184   -2.0352    4.0115 H   0  0  0  0  0  0  0  0  0  0  0  0
   -8.9118   -1.8173    1.1051 H   0  0  0  0  0  0  0  0  0  0  0  0
   -7.4069   -2.5881    1.5846 H   0  0  0  0  0  0  0  0  0  0  0  0
   -7.3916   -1.3014    0.3841 H   0  0  0  0  0  0  0  0  0  0  0  0
   -9.4385    0.4310    1.6216 H   0  0  0  0  0  0  0  0  0  0  0  0
   -7.9174    1.1696    1.1298 H   0  0  0  0  0  0  0  0  0  0  0  0
   -8.5278    1.3948    2.7747 H   0  0  0  0  0  0  0  0  0  0  0  0
   -2.0467   -4.9010    9.2648 H   0  0  0  0  0  0  0  0  0  0  0  0
   -3.0503   -4.2997    7.9403 H   0  0  0  0  0  0  0  0  0  0  0  0
   -2.1004   -3.1719    8.9058 H   0  0  0  0  0  0  0  0  0  0  0  0
    0.4991   -5.0881    8.9413 H   0  0  0  0  0  0  0  0  0  0  0  0
    0.3587   -3.3361    8.9463 H   0  0  0  0  0  0  0  0  0  0  0  0
    1.2420   -4.1409    7.6483 H   0  0  0  0  0  0  0  0  0  0  0  0
   -0.9137   -6.4864    7.6491 H   0  0  0  0  0  0  0  0  0  0  0  0
   -0.1789   -5.8793    6.1668 H   0  0  0  0  0  0  0  0  0  0  0  0
   -1.9314   -5.8826    6.3500 H   0  0  0  0  0  0  0  0  0  0  0  0
    1.3100   -6.1043    3.7579 H   0  0  0  0  0  0  0  0  0  0  0  0
    1.5617   -4.5039    3.0782 H   0  0  0  0  0  0  0  0  0  0  0  0
    0.7080   -4.6793    4.6123 H   0  0  0  0  0  0  0  0  0  0  0  0
    3.8480   -6.2427    3.3083 H   0  0  0  0  0  0  0  0  0  0  0  0
    4.9537   -5.2765    4.2900 H   0  0  0  0  0  0  0  0  0  0  0  0
    4.0257   -4.5040    2.9970 H   0  0  0  0  0  0  0  0  0  0  0  0
    2.6469   -7.0019    5.4541 H   0  0  0  0  0  0  0  0  0  0  0  0
    2.1507   -5.7972    6.6412 H   0  0  0  0  0  0  0  0  0  0  0  0
    3.8607   -6.0882    6.3330 H   0  0  0  0  0  0  0  0  0  0  0  0
   -2.0817    6.0190    8.4311 H   0  0  0  0  0  0  0  0  0  0  0  0
   -1.8887    4.2709    8.2678 H   0  0  0  0  0  0  0  0  0  0  0  0
   -3.2439    5.0841    7.4882 H   0  0  0  0  0  0  0  0  0  0  0  0
    3.9591    7.5503    3.9390 H   0  0  0  0  0  0  0  0  0  0  0  0
    5.0522    6.5407    4.8906 H   0  0  0  0  0  0  0  0  0  0  0  0
    3.3220    6.5103    5.2171 H   0  0  0  0  0  0  0  0  0  0  0  0
    0.1842    6.4393    7.6145 H   0  0  0  0  0  0  0  0  0  0  0  0
    0.7738    5.7759    6.0951 H   0  0  0  0  0  0  0  0  0  0  0  0
    0.4899    4.7101    7.4803 H   0  0  0  0  0  0  0  0  0  0  0  0
   -1.6802    7.5191    6.4156 H   0  0  0  0  0  0  0  0  0  0  0  0
   -2.8211    6.5802    5.4552 H   0  0  0  0  0  0  0  0  0  0  0  0
   -1.1704    6.8152    4.8790 H   0  0  0  0  0  0  0  0  0  0  0  0
    4.7194    6.4026    1.6487 H   0  0  0  0  0  0  0  0  0  0  0  0
    4.9870    4.6513    1.7308 H   0  0  0  0  0  0  0  0  0  0  0  0
    5.9374    5.7463    2.7330 H   0  0  0  0  0  0  0  0  0  0  0  0
    2.4595    6.5074    2.1949 H   0  0  0  0  0  0  0  0  0  0  0  0
    1.7211    5.6397    3.5296 H   0  0  0  0  0  0  0  0  0  0  0  0
    2.2964    4.7520    2.1097 H   0  0  0  0  0  0  0  0  0  0  0  0
   10.6660   -0.9394    7.6405 H   0  0  0  0  0  0  0  0  0  0  0  0
    9.8482   -2.0067    8.7797 H   0  0  0  0  0  0  0  0  0  0  0  0
   11.2977   -1.1351    9.2778 H   0  0  0  0  0  0  0  0  0  0  0  0
    8.4996    0.7473   10.9500 H   0  0  0  0  0  0  0  0  0  0  0  0
   10.0077   -0.1180   11.2549 H   0  0  0  0  0  0  0  0  0  0  0  0
    8.5684   -1.0032   10.7574 H   0  0  0  0  0  0  0  0  0  0  0  0
    9.8152    2.2609    9.3771 H   0  0  0  0  0  0  0  0  0  0  0  0
   10.7487    1.5455    8.0514 H   0  0  0  0  0  0  0  0  0  0  0  0
   11.2469    1.2959    9.7194 H   0  0  0  0  0  0  0  0  0  0  0  0
    8.6902    2.0995    7.3711 H   0  0  0  0  0  0  0  0  0  0  0  0
    7.5632   -1.7602    8.8882 H   0  0  0  0  0  0  0  0  0  0  0  0
    4.5737   -4.1223    6.7556 H   0  0  0  0  0  0  0  0  0  0  0  0
    6.1834    4.3671    4.4555 H   0  0  0  0  0  0  0  0  0  0  0  0
   -3.6017    4.4973    5.2287 H   0  0  0  0  0  0  0  0  0  0  0  0
   -2.6781   -4.1317    5.3734 H   0  0  0  0  0  0  0  0  0  0  0  0
   -6.3627    1.8264    2.8279 H   0  0  0  0  0  0  0  0  0  0  0  0
   -5.7275   -2.4220    2.8594 H   0  0  0  0  0  0  0  0  0  0  0  0
    1.6455   -2.5539    4.0541 H   0  0  0  0  0  0  0  0  0  0  0  0
    0.5453   -1.9800    7.1879 H   0  0  0  0  0  0  0  0  0  0  0  0
    0.5603    3.5802    5.5593 H   0  0  0  0  0  0  0  0  0  0  0  0
    1.9809    3.6109    4.1946 H   0  0  0  0  0  0  0  0  0  0  0  0
  1  2  4  0  0  0  0
  2  3  4  0  0  0  0
  3  4  1  0  0  0  0
  4  5  4  0  0  0  0
  1  6  4  0  0  0  0
  5  6  4  0  0  0  0
  3  7  4  0  0  0  0
  7  8  4  0  0  0  0
  8  9  1  0  0  0  0
  4 10  4  0  0  0  0
  9 10  4  0  0  0  0
  7 11  4  0  0  0  0
 11 12  1  0  0  0  0
 12 13  4  0  0  0  0
  8 14  1  0  0  0  0
 13 14  4  0  0  0  0
 14 15  4  0  0  0  0
 15 16  4  0  0  0  0
  9 17  4  0  0  0  0
 16 17  4  0  0  0  0
 11 18  4  0  0  0  0
 18 19  4  0  0  0  0
 19 20  4  0  0  0  0
 12 21  4  0  0  0  0
 20 21  4  0  0  0  0
  2 22  1  0  0  0  0
 18 23  1  0  0  0  0
 22 24  1  0  0  0  0
 23 24  1  0  0  0  0
 25 26  4  0  0  0  0
 26 27  4  0  0  0  0
 27 28  1  0  0  0  0
 28 29  4  0  0  0  0
 25 30  4  0  0  0  0
 29 30  4  0  0  0  0
 27 31  4  0  0  0  0
 31 32  4  0  0  0  0
 32 33  4  0  0  0  0
 28 34  4  0  0  0  0
 33 34  4  0  0  0  0
 31 35  4  0  0  0  0
 35 36  1  0  0  0  0
 36 37  4  0  0  0  0
 32 38  4  0  0  0  0
 37 38  4  0  0  0  0
 38 39  4  0  0  0  0
 39 40  4  0  0  0  0
 33 41  4  0  0  0  0
 40 41  4  0  0  0  0
 35 42  4  0  0  0  0
 42 43  4  0  0  0  0
 43 44  4  0  0  0  0
 36 45  4  0  0  0  0
 44 45  4  0  0  0  0
 24 46  1  0  0  0  0
 42 46  1  0  0  0  0
 24 47  1  0  0  0  0
 26 47  1  0  0  0  0
  6 48  1  0  0  0  0
 48 49  1  0  0  0  0
 48 50  1  0  0  0  0
 48 51  1  0  0  0  0
 20 52  1  0  0  0  0
 52 53  1  0  0  0  0
 52 54  1  0  0  0  0
 52 55  1  0  0  0  0
 16 56  1  0  0  0  0
 56 57  1  0  0  0  0
 56 58  1  0  0  0  0
 56 59  1  0  0  0  0
 30 60  1  0  0  0  0
 60 61  1  0  0  0  0
 60 62  1  0  0  0  0
 60 63  1  0  0  0  0
 44 64  1  0  0  0  0
 64 65  1  0  0  0  0
 64 66  1  0  0  0  0
 64 67  1  0  0  0  0
 40 68  1  0  0  0  0
 68 69  1  0  0  0  0
 68 70  1  0  0  0  0
 68 71  1  0  0  0  0
 59 72  1  0  0  0  0
 59 73  1  0  0  0  0
 59 74  1  0  0  0  0
 57 75  1  0  0  0  0
 57 76  1  0  0  0  0
 57 77  1  0  0  0  0
 58 78  1  0  0  0  0
 58 79  1  0  0  0  0
 58 80  1  0  0  0  0
 51 81  1  0  0  0  0
 51 82  1  0  0  0  0
 51 83  1  0  0  0  0
 49 84  1  0  0  0  0
 49 85  1  0  0  0  0
 49 86  1  0  0  0  0
 50 87  1  0  0  0  0
 50 88  1  0  0  0  0
 50 89  1  0  0  0  0
 61 90  1  0  0  0  0
 61 91  1  0  0  0  0
 61 92  1  0  0  0  0
 63 93  1  0  0  0  0
 63 94  1  0  0  0  0
 63 95  1  0  0  0  0
 62 96  1  0  0  0  0
 62 97  1  0  0  0  0
 62 98  1  0  0  0  0
 53 99  1  0  0  0  0
 53100  1  0  0  0  0
 53101  1  0  0  0  0
 66102  1  0  0  0  0
 66103  1  0  0  0  0
 66104  1  0  0  0  0
 54105  1  0  0  0  0
 54106  1  0  0  0  0
 54107  1  0  0  0  0
 55108  1  0  0  0  0
 55109  1  0  0  0  0
 55110  1  0  0  0  0
 65111  1  0  0  0  0
 65112  1  0  0  0  0
 65113  1  0  0  0  0
 67114  1  0  0  0  0
 67115  1  0  0  0  0
 67116  1  0  0  0  0
 71117  1  0  0  0  0
 71118  1  0  0  0  0
 71119  1  0  0  0  0
 70120  1  0  0  0  0
 70121  1  0  0  0  0
 70122  1  0  0  0  0
 69123  1  0  0  0  0
 69124  1  0  0  0  0
 69125  1  0  0  0  0
 39126  1  0  0  0  0
 41127  1  0  0  0  0
 29128  1  0  0  0  0
 45129  1  0  0  0  0
 21130  1  0  0  0  0
  5131  1  0  0  0  0
 15132  1  0  0  0  0
 17133  1  0  0  0  0
 25134  1  0  0  0  0
  1135  1  0  0  0  0
 19136  1  0  0  0  0
 43137  1  0  0  0  0
138139  4  0  0  0  0
139140  4  0  0  0  0
140141  1  0  0  0  0
141142  4  0  0  0  0
138143  4  0  0  0  0
142143  4  0  0  0  0
140144  4  0  0  0  0
144145  4  0  0  0  0
145146  4  0  0  0  0
141147  4  0  0  0  0
146147  4  0  0  0  0
144148  4  0  0  0  0
148149  1  0  0  0  0
149150  4  0  0  0  0
145151  4  0  0  0  0
150151  4  0  0  0  0
151152  4  0  0  0  0
152153  4  0  0  0  0
146154  4  0  0  0  0
153154  4  0  0  0  0
148155  4  0  0  0  0
155156  4  0  0  0  0
156157  4  0  0  0  0
149158  4  0  0  0  0
157158  4  0  0  0  0
139159  1  0  0  0  0
155160  1  0  0  0  0
159161  1  0  0  0  0
160161  1  0  0  0  0
162163  4  0  0  0  0
163164  4  0  0  0  0
164165  1  0  0  0  0
165166  4  0  0  0  0
162167  4  0  0  0  0
166167  4  0  0  0  0
164168  4  0  0  0  0
168169  4  0  0  0  0
169170  1  0  0  0  0
165171  4  0  0  0  0
170171  4  0  0  0  0
168172  4  0  0  0  0
172173  1  0  0  0  0
173174  4  0  0  0  0
169175  1  0  0  0  0
174175  4  0  0  0  0
175176  4  0  0  0  0
176177  4  0  0  0  0
170178  4  0  0  0  0
177178  4  0  0  0  0
172179  4  0  0  0  0
179180  4  0  0  0  0
180181  4  0  0  0  0
173182  4  0  0  0  0
181182  4  0  0  0  0
161183  1  0  0  0  0
179183  1  0  0  0  0
161184  1  0  0  0  0
163184  1  0  0  0  0
143185  1  0  0  0  0
185186  1  0  0  0  0
185187  1  0  0  0  0
185188  1  0  0  0  0
157189  1  0  0  0  0
189190  1  0  0  0  0
189191  1  0  0  0  0
189192  1  0  0  0  0
153193  1  0  0  0  0
193194  1  0  0  0  0
193195  1  0  0  0  0
193196  1  0  0  0  0
167197  1  0  0  0  0
197198  1  0  0  0  0
197199  1  0  0  0  0
197200  1  0  0  0  0
181201  1  0  0  0  0
201202  1  0  0  0  0
201203  1  0  0  0  0
201204  1  0  0  0  0
177205  1  0  0  0  0
205206  1  0  0  0  0
205207  1  0  0  0  0
205208  1  0  0  0  0
196209  1  0  0  0  0
196210  1  0  0  0  0
196211  1  0  0  0  0
194212  1  0  0  0  0
194213  1  0  0  0  0
194214  1  0  0  0  0
195215  1  0  0  0  0
195216  1  0  0  0  0
195217  1  0  0  0  0
188218  1  0  0  0  0
188219  1  0  0  0  0
188220  1  0  0  0  0
186221  1  0  0  0  0
186222  1  0  0  0  0
186223  1  0  0  0  0
187224  1  0  0  0  0
187225  1  0  0  0  0
187226  1  0  0  0  0
198227  1  0  0  0  0
198228  1  0  0  0  0
198229  1  0  0  0  0
200230  1  0  0  0  0
200231  1  0  0  0  0
200232  1  0  0  0  0
199233  1  0  0  0  0
199234  1  0  0  0  0
199235  1  0  0  0  0
190236  1  0  0  0  0
190237  1  0  0  0  0
190238  1  0  0  0  0
203239  1  0  0  0  0
203240  1  0  0  0  0
203241  1  0  0  0  0
191242  1  0  0  0  0
191243  1  0  0  0  0
191244  1  0  0  0  0
192245  1  0  0  0  0
192246  1  0  0  0  0
192247  1  0  0  0  0
202248  1  0  0  0  0
202249  1  0  0  0  0
202250  1  0  0  0  0
204251  1  0  0  0  0
204252  1  0  0  0  0
204253  1  0  0  0  0
208254  1  0  0  0  0
208255  1  0  0  0  0
208256  1  0  0  0  0
207257  1  0  0  0  0
207258  1  0  0  0  0
207259  1  0  0  0  0
206260  1  0  0  0  0
206261  1  0  0  0  0
206262  1  0  0  0  0
176263  1  0  0  0  0
178264  1  0  0  0  0
166265  1  0  0  0  0
182266  1  0  0  0  0
158267  1  0  0  0  0
142268  1  0  0  0  0
152269  1  0  0  0  0
154270  1  0  0  0  0
162271  1  0  0  0  0
138272  1  0  0  0  0
156273  1  0  0  0  0
180274  1  0  0  0  0
M  END
