 energy: -222.364410278986 gnorm: 0.001067709637 xtb: 6.7.1 (edcfbbe)
          03132510073D

156164  0     0  0            999 V2000
   -2.2714    2.2773   -0.8429 C   0  0  0  0  0  0  0  0  0  0  0  0
   -1.7757    0.9876   -0.8886 C   0  0  0  0  0  0  0  0  0  0  0  0
   -0.6259    0.6345   -0.1294 C   0  0  0  0  0  0  0  0  0  0  0  0
    0.0830    1.6985    0.4618 C   0  0  0  0  0  0  0  0  0  0  0  0
   -0.4419    2.9897    0.4893 C   0  0  0  0  0  0  0  0  0  0  0  0
   -1.6476    3.2936   -0.1133 C   0  0  0  0  0  0  0  0  0  0  0  0
   -0.0987   -0.6944   -0.0621 C   0  0  0  0  0  0  0  0  0  0  0  0
    1.2982   -0.8338    0.1701 C   0  0  0  0  0  0  0  0  0  0  0  0
    2.0637    0.2219    0.7032 C   0  0  0  0  0  0  0  0  0  0  0  0
    1.4445    1.5178    0.9840 C   0  0  0  0  0  0  0  0  0  0  0  0
   -0.8553   -1.8884   -0.2709 C   0  0  0  0  0  0  0  0  0  0  0  0
   -0.2073   -3.0499   -0.7437 C   0  0  0  0  0  0  0  0  0  0  0  0
    1.2582   -3.1302   -0.8021 C   0  0  0  0  0  0  0  0  0  0  0  0
    1.9764   -2.0262   -0.1547 C   0  0  0  0  0  0  0  0  0  0  0  0
    3.3420   -2.1394    0.0612 C   0  0  0  0  0  0  0  0  0  0  0  0
    4.0900   -1.1248    0.6523 C   0  0  0  0  0  0  0  0  0  0  0  0
    3.4201    0.0518    0.9607 C   0  0  0  0  0  0  0  0  0  0  0  0
   -2.2452   -1.9993   -0.0046 C   0  0  0  0  0  0  0  0  0  0  0  0
   -2.9478   -3.1184   -0.4223 C   0  0  0  0  0  0  0  0  0  0  0  0
   -2.3240   -4.1937   -1.0499 C   0  0  0  0  0  0  0  0  0  0  0  0
   -0.9403   -4.1554   -1.1524 C   0  0  0  0  0  0  0  0  0  0  0  0
   -2.8098   -0.9848    0.6952 O   0  0  0  0  0  0  0  0  0  0  0  0
   -2.2863    0.0284   -1.7051 O   0  0  0  0  0  0  0  0  0  0  0  0
    2.0532    2.4351    1.5271 O   0  0  0  0  0  0  0  0  0  0  0  0
    1.8446   -4.0758   -1.3170 O   0  0  0  0  0  0  0  0  0  0  0  0
   -4.1888   -1.0173    0.9567 C   0  0  0  0  0  0  0  0  0  0  0  0
   -3.3247    0.3543   -2.5916 C   0  0  0  0  0  0  0  0  0  0  0  0
   -3.0968   -5.3689   -1.6184 C   0  0  0  0  0  0  0  0  0  0  0  0
   -2.9666   -5.3148   -3.1483 C   0  0  0  0  0  0  0  0  0  0  0  0
   -4.5796   -5.3353   -1.2411 C   0  0  0  0  0  0  0  0  0  0  0  0
   -2.2676    4.6799   -0.0779 C   0  0  0  0  0  0  0  0  0  0  0  0
   -3.7225    4.5852    0.4049 C   0  0  0  0  0  0  0  0  0  0  0  0
   -1.5159    5.6262    0.8623 C   0  0  0  0  0  0  0  0  0  0  0  0
   -2.2290    5.2724   -1.4942 C   0  0  0  0  0  0  0  0  0  0  0  0
    5.5795   -1.3070    0.8772 C   0  0  0  0  0  0  0  0  0  0  0  0
    5.8456   -2.6671    1.5356 C   0  0  0  0  0  0  0  0  0  0  0  0
    6.1573   -0.2220    1.7891 C   0  0  0  0  0  0  0  0  0  0  0  0
    6.2770   -1.2426   -0.4896 C   0  0  0  0  0  0  0  0  0  0  0  0
    5.6323   -0.2158    2.7405 H   0  0  0  0  0  0  0  0  0  0  0  0
    6.0899    0.7630    1.3338 H   0  0  0  0  0  0  0  0  0  0  0  0
    7.2082   -0.4285    1.9805 H   0  0  0  0  0  0  0  0  0  0  0  0
    6.8997   -2.7557    1.7892 H   0  0  0  0  0  0  0  0  0  0  0  0
    5.5918   -3.4910    0.8739 H   0  0  0  0  0  0  0  0  0  0  0  0
    5.2591   -2.7497    2.4475 H   0  0  0  0  0  0  0  0  0  0  0  0
    7.3482   -1.3895   -0.3691 H   0  0  0  0  0  0  0  0  0  0  0  0
    6.1105   -0.2734   -0.9555 H   0  0  0  0  0  0  0  0  0  0  0  0
    5.8957   -2.0116   -1.1567 H   0  0  0  0  0  0  0  0  0  0  0  0
    3.8058   -3.0609   -0.2561 H   0  0  0  0  0  0  0  0  0  0  0  0
    3.9317    0.8928    1.3999 H   0  0  0  0  0  0  0  0  0  0  0  0
   -0.3837   -4.9833   -1.5611 H   0  0  0  0  0  0  0  0  0  0  0  0
   -4.0068   -3.1616   -0.2410 H   0  0  0  0  0  0  0  0  0  0  0  0
   -3.4956   -6.1523   -3.5983 H   0  0  0  0  0  0  0  0  0  0  0  0
   -1.9236   -5.3618   -3.4500 H   0  0  0  0  0  0  0  0  0  0  0  0
   -3.3916   -4.3897   -3.5338 H   0  0  0  0  0  0  0  0  0  0  0  0
   -4.6871   -5.3494   -0.1594 H   0  0  0  0  0  0  0  0  0  0  0  0
   -5.0767   -6.2154   -1.6437 H   0  0  0  0  0  0  0  0  0  0  0  0
   -5.0770   -4.4574   -1.6488 H   0  0  0  0  0  0  0  0  0  0  0  0
   -4.4014   -0.1040    1.5102 H   0  0  0  0  0  0  0  0  0  0  0  0
   -4.4642   -1.8787    1.5727 H   0  0  0  0  0  0  0  0  0  0  0  0
   -4.7748   -1.0248    0.0305 H   0  0  0  0  0  0  0  0  0  0  0  0
   -3.5094   -0.5523   -3.1668 H   0  0  0  0  0  0  0  0  0  0  0  0
   -3.0366    1.1611   -3.2739 H   0  0  0  0  0  0  0  0  0  0  0  0
   -4.2415    0.6374   -2.0623 H   0  0  0  0  0  0  0  0  0  0  0  0
   -3.1597    2.5159   -1.4047 H   0  0  0  0  0  0  0  0  0  0  0  0
    0.1554    3.7374    0.9855 H   0  0  0  0  0  0  0  0  0  0  0  0
   -2.6420    6.2788   -1.4912 H   0  0  0  0  0  0  0  0  0  0  0  0
   -2.8051    4.6692   -2.1913 H   0  0  0  0  0  0  0  0  0  0  0  0
   -1.2027    5.3206   -1.8520 H   0  0  0  0  0  0  0  0  0  0  0  0
   -1.4822    5.2272    1.8735 H   0  0  0  0  0  0  0  0  0  0  0  0
   -2.0253    6.5872    0.8949 H   0  0  0  0  0  0  0  0  0  0  0  0
   -0.5004    5.7981    0.5163 H   0  0  0  0  0  0  0  0  0  0  0  0
   -4.1657    5.5778    0.4432 H   0  0  0  0  0  0  0  0  0  0  0  0
   -3.7630    4.1508    1.4020 H   0  0  0  0  0  0  0  0  0  0  0  0
   -4.3272    3.9737   -0.2590 H   0  0  0  0  0  0  0  0  0  0  0  0
   -2.5118   -6.6851   -1.0924 C   0  0  0  0  0  0  0  0  0  0  0  0
   -3.1015   -7.5244   -1.4555 H   0  0  0  0  0  0  0  0  0  0  0  0
   -2.5429   -6.6792   -0.0063 H   0  0  0  0  0  0  0  0  0  0  0  0
   -1.4865   -6.8262   -1.4208 H   0  0  0  0  0  0  0  0  0  0  0  0
    0.2219    1.5469    3.9635 C   0  0  0  0  0  0  0  0  0  0  0  0
   -0.5233    0.4446    3.5785 C   0  0  0  0  0  0  0  0  0  0  0  0
    0.0724   -0.8436    3.5497 C   0  0  0  0  0  0  0  0  0  0  0  0
    1.4753   -0.8912    3.6896 C   0  0  0  0  0  0  0  0  0  0  0  0
    2.1933    0.2318    4.0795 C   0  0  0  0  0  0  0  0  0  0  0  0
    1.5787    1.4602    4.2721 C   0  0  0  0  0  0  0  0  0  0  0  0
   -0.6572   -2.0588    3.3684 C   0  0  0  0  0  0  0  0  0  0  0  0
    0.0414   -3.1733    2.8246 C   0  0  0  0  0  0  0  0  0  0  0  0
    1.4495   -3.2116    2.8035 C   0  0  0  0  0  0  0  0  0  0  0  0
    2.2236   -2.1245    3.4148 C   0  0  0  0  0  0  0  0  0  0  0  0
   -2.0199   -2.2613    3.7538 C   0  0  0  0  0  0  0  0  0  0  0  0
   -2.7536   -3.3271    3.1967 C   0  0  0  0  0  0  0  0  0  0  0  0
   -2.1076   -4.3530    2.3669 C   0  0  0  0  0  0  0  0  0  0  0  0
   -0.6453   -4.2978    2.3220 C   0  0  0  0  0  0  0  0  0  0  0  0
    0.0574   -5.3718    1.7920 C   0  0  0  0  0  0  0  0  0  0  0  0
    1.4481   -5.4104    1.7613 C   0  0  0  0  0  0  0  0  0  0  0  0
    2.1204   -4.3161    2.2921 C   0  0  0  0  0  0  0  0  0  0  0  0
   -2.6659   -1.5205    4.7820 C   0  0  0  0  0  0  0  0  0  0  0  0
   -4.0134   -1.7047    5.0299 C   0  0  0  0  0  0  0  0  0  0  0  0
   -4.7761   -2.6586    4.3499 C   0  0  0  0  0  0  0  0  0  0  0  0
   -4.1092   -3.4956    3.4761 C   0  0  0  0  0  0  0  0  0  0  0  0
   -1.8788   -0.7091    5.5357 O   0  0  0  0  0  0  0  0  0  0  0  0
   -1.8185    0.5233    3.1832 O   0  0  0  0  0  0  0  0  0  0  0  0
    3.4228   -2.2272    3.6480 O   0  0  0  0  0  0  0  0  0  0  0  0
   -2.7527   -5.2493    1.8305 O   0  0  0  0  0  0  0  0  0  0  0  0
   -2.4228   -0.0620    6.6564 C   0  0  0  0  0  0  0  0  0  0  0  0
   -2.4509    1.7761    3.1674 C   0  0  0  0  0  0  0  0  0  0  0  0
   -6.2645   -2.7650    4.6327 C   0  0  0  0  0  0  0  0  0  0  0  0
   -6.9420   -3.8383    3.7768 C   0  0  0  0  0  0  0  0  0  0  0  0
   -6.9296   -1.4155    4.3244 C   0  0  0  0  0  0  0  0  0  0  0  0
    2.3484    2.6436    4.8295 C   0  0  0  0  0  0  0  0  0  0  0  0
    2.3737    2.4842    6.3578 C   0  0  0  0  0  0  0  0  0  0  0  0
    3.7838    2.6685    4.2911 C   0  0  0  0  0  0  0  0  0  0  0  0
    1.6955    3.9803    4.4643 C   0  0  0  0  0  0  0  0  0  0  0  0
    2.1672   -6.6416    1.2411 C   0  0  0  0  0  0  0  0  0  0  0  0
    3.6610   -6.3881    1.0262 C   0  0  0  0  0  0  0  0  0  0  0  0
    1.5695   -7.0770   -0.1022 C   0  0  0  0  0  0  0  0  0  0  0  0
    1.9885   -7.7600    2.2792 C   0  0  0  0  0  0  0  0  0  0  0  0
    1.6329   -6.2537   -0.8095 H   0  0  0  0  0  0  0  0  0  0  0  0
    0.5322   -7.3824   -0.0009 H   0  0  0  0  0  0  0  0  0  0  0  0
    2.1302   -7.9203   -0.5001 H   0  0  0  0  0  0  0  0  0  0  0  0
    4.1231   -7.2767    0.6011 H   0  0  0  0  0  0  0  0  0  0  0  0
    4.1705   -6.1621    1.9596 H   0  0  0  0  0  0  0  0  0  0  0  0
    3.8000   -5.5664    0.3285 H   0  0  0  0  0  0  0  0  0  0  0  0
    2.4874   -8.6660    1.9421 H   0  0  0  0  0  0  0  0  0  0  0  0
    0.9349   -7.9816    2.4319 H   0  0  0  0  0  0  0  0  0  0  0  0
    2.4175   -7.4631    3.2343 H   0  0  0  0  0  0  0  0  0  0  0  0
   -0.5308   -6.1960    1.4193 H   0  0  0  0  0  0  0  0  0  0  0  0
    3.1969   -4.2845    2.3386 H   0  0  0  0  0  0  0  0  0  0  0  0
   -4.5984   -4.3227    2.9872 H   0  0  0  0  0  0  0  0  0  0  0  0
   -4.4920   -1.1046    5.7868 H   0  0  0  0  0  0  0  0  0  0  0  0
   -8.0088   -3.8538    3.9903 H   0  0  0  0  0  0  0  0  0  0  0  0
   -6.5413   -4.8242    3.9973 H   0  0  0  0  0  0  0  0  0  0  0  0
   -6.8130   -3.6321    2.7169 H   0  0  0  0  0  0  0  0  0  0  0  0
   -6.5206   -0.6192    4.9403 H   0  0  0  0  0  0  0  0  0  0  0  0
   -7.9992   -1.4749    4.5136 H   0  0  0  0  0  0  0  0  0  0  0  0
   -6.7777   -1.1515    3.2794 H   0  0  0  0  0  0  0  0  0  0  0  0
   -1.5891    0.4649    7.1193 H   0  0  0  0  0  0  0  0  0  0  0  0
   -2.8403   -0.7766    7.3736 H   0  0  0  0  0  0  0  0  0  0  0  0
   -3.1951    0.6630    6.3756 H   0  0  0  0  0  0  0  0  0  0  0  0
   -3.4660    1.5886    2.8191 H   0  0  0  0  0  0  0  0  0  0  0  0
   -1.9562    2.4660    2.4767 H   0  0  0  0  0  0  0  0  0  0  0  0
   -2.4926    2.2223    4.1677 H   0  0  0  0  0  0  0  0  0  0  0  0
   -0.2620    2.5059    4.0140 H   0  0  0  0  0  0  0  0  0  0  0  0
    3.2527    0.0979    4.2238 H   0  0  0  0  0  0  0  0  0  0  0  0
    2.3321    4.7996    4.7915 H   0  0  0  0  0  0  0  0  0  0  0  0
    0.7279    4.1059    4.9453 H   0  0  0  0  0  0  0  0  0  0  0  0
    1.5812    4.0419    3.3857 H   0  0  0  0  0  0  0  0  0  0  0  0
    4.3647    1.8233    4.6472 H   0  0  0  0  0  0  0  0  0  0  0  0
    4.2847    3.5767    4.6195 H   0  0  0  0  0  0  0  0  0  0  0  0
    3.7590    2.6580    3.2058 H   0  0  0  0  0  0  0  0  0  0  0  0
    2.9346    3.2994    6.8098 H   0  0  0  0  0  0  0  0  0  0  0  0
    2.8424    1.5430    6.6356 H   0  0  0  0  0  0  0  0  0  0  0  0
    1.3625    2.4940    6.7603 H   0  0  0  0  0  0  0  0  0  0  0  0
   -6.4753   -3.1241    6.1104 C   0  0  0  0  0  0  0  0  0  0  0  0
   -7.5363   -3.2440    6.3183 H   0  0  0  0  0  0  0  0  0  0  0  0
   -6.0864   -2.3515    6.7682 H   0  0  0  0  0  0  0  0  0  0  0  0
   -5.9697   -4.0584    6.3445 H   0  0  0  0  0  0  0  0  0  0  0  0
  1  2  2  0  0  0  0
  1 64  1  0  0  0  0
  2  3  1  0  0  0  0
  2 23  1  0  0  0  0
  3  4  2  0  0  0  0
  3  7  1  0  0  0  0
  4  5  1  0  0  0  0
  5  6  2  0  0  0  0
  5 65  1  0  0  0  0
  6 31  1  0  0  0  0
  6  1  1  0  0  0  0
  7  8  1  0  0  0  0
  8  9  2  0  0  0  0
  9 10  1  0  0  0  0
 10  4  1  0  0  0  0
 10 24  2  0  0  0  0
 11 12  2  0  0  0  0
 11 18  1  0  0  0  0
 11  7  1  0  0  0  0
 12 13  1  0  0  0  0
 13 14  1  0  0  0  0
 13 25  2  0  0  0  0
 14  8  1  0  0  0  0
 14 15  2  0  0  0  0
 15 16  1  0  0  0  0
 15 48  1  0  0  0  0
 16 35  1  0  0  0  0
 16 17  2  0  0  0  0
 17  9  1  0  0  0  0
 17 49  1  0  0  0  0
 18 19  2  0  0  0  0
 19 20  1  0  0  0  0
 19 51  1  0  0  0  0
 20 28  1  0  0  0  0
 20 21  2  0  0  0  0
 21 12  1  0  0  0  0
 21 50  1  0  0  0  0
 22 26  1  0  0  0  0
 22 18  1  0  0  0  0
 23 27  1  0  0  0  0
 26 58  1  0  0  0  0
 26 59  1  0  0  0  0
 26 60  1  0  0  0  0
 27 61  1  0  0  0  0
 27 62  1  0  0  0  0
 27 63  1  0  0  0  0
 28 29  1  0  0  0  0
 28 30  1  0  0  0  0
 28 75  1  0  0  0  0
 29 52  1  0  0  0  0
 29 53  1  0  0  0  0
 29 54  1  0  0  0  0
 30 55  1  0  0  0  0
 30 56  1  0  0  0  0
 30 57  1  0  0  0  0
 31 32  1  0  0  0  0
 31 33  1  0  0  0  0
 31 34  1  0  0  0  0
 32 72  1  0  0  0  0
 32 73  1  0  0  0  0
 32 74  1  0  0  0  0
 33 69  1  0  0  0  0
 33 70  1  0  0  0  0
 33 71  1  0  0  0  0
 34 66  1  0  0  0  0
 34 67  1  0  0  0  0
 34 68  1  0  0  0  0
 35 36  1  0  0  0  0
 35 37  1  0  0  0  0
 35 38  1  0  0  0  0
 36 42  1  0  0  0  0
 36 43  1  0  0  0  0
 36 44  1  0  0  0  0
 37 39  1  0  0  0  0
 37 40  1  0  0  0  0
 37 41  1  0  0  0  0
 38 45  1  0  0  0  0
 38 46  1  0  0  0  0
 38 47  1  0  0  0  0
 75 76  1  0  0  0  0
 75 77  1  0  0  0  0
 75 78  1  0  0  0  0
 79 80  2  0  0  0  0
 79142  1  0  0  0  0
 80 81  1  0  0  0  0
 80101  1  0  0  0  0
 81 82  2  0  0  0  0
 81 85  1  0  0  0  0
 82 83  1  0  0  0  0
 83 84  2  0  0  0  0
 83143  1  0  0  0  0
 84109  1  0  0  0  0
 84 79  1  0  0  0  0
 85 86  1  0  0  0  0
 86 87  2  0  0  0  0
 87 88  1  0  0  0  0
 88 82  1  0  0  0  0
 88102  2  0  0  0  0
 89 90  2  0  0  0  0
 89 96  1  0  0  0  0
 89 85  1  0  0  0  0
 90 91  1  0  0  0  0
 91 92  1  0  0  0  0
 91103  2  0  0  0  0
 92 86  1  0  0  0  0
 92 93  2  0  0  0  0
 93 94  1  0  0  0  0
 93126  1  0  0  0  0
 94113  1  0  0  0  0
 94 95  2  0  0  0  0
 95 87  1  0  0  0  0
 95127  1  0  0  0  0
 96 97  2  0  0  0  0
 97 98  1  0  0  0  0
 97129  1  0  0  0  0
 98106  1  0  0  0  0
 98 99  2  0  0  0  0
 99 90  1  0  0  0  0
 99128  1  0  0  0  0
100104  1  0  0  0  0
100 96  1  0  0  0  0
101105  1  0  0  0  0
104136  1  0  0  0  0
104137  1  0  0  0  0
104138  1  0  0  0  0
105139  1  0  0  0  0
105140  1  0  0  0  0
105141  1  0  0  0  0
106107  1  0  0  0  0
106108  1  0  0  0  0
106153  1  0  0  0  0
107130  1  0  0  0  0
107131  1  0  0  0  0
107132  1  0  0  0  0
108133  1  0  0  0  0
108134  1  0  0  0  0
108135  1  0  0  0  0
109110  1  0  0  0  0
109111  1  0  0  0  0
109112  1  0  0  0  0
110150  1  0  0  0  0
110151  1  0  0  0  0
110152  1  0  0  0  0
111147  1  0  0  0  0
111148  1  0  0  0  0
111149  1  0  0  0  0
112144  1  0  0  0  0
112145  1  0  0  0  0
112146  1  0  0  0  0
113114  1  0  0  0  0
113115  1  0  0  0  0
113116  1  0  0  0  0
114120  1  0  0  0  0
114121  1  0  0  0  0
114122  1  0  0  0  0
115117  1  0  0  0  0
115118  1  0  0  0  0
115119  1  0  0  0  0
116123  1  0  0  0  0
116124  1  0  0  0  0
116125  1  0  0  0  0
153154  1  0  0  0  0
153155  1  0  0  0  0
153156  1  0  0  0  0
M  END
