 xtb: 6.7.1 (edcfbbe)
          12102414053D

151162  0     0  0            999 V2000
    1.4715    1.4848    2.1237 C   0  0  0  0  0  0  0  0  0  0  0  0
    1.4931    0.2419    1.4972 C   0  0  0  0  0  0  0  0  0  0  0  0
    2.7091   -0.3017    1.0176 C   0  0  0  0  0  0  0  0  0  0  0  0
    3.8221    0.6103    1.0046 C   0  0  0  0  0  0  0  0  0  0  0  0
    3.7336    1.8932    1.5970 C   0  0  0  0  0  0  0  0  0  0  0  0
    2.5947    2.3097    2.2448 C   0  0  0  0  0  0  0  0  0  0  0  0
    2.9680   -1.6875    0.7430 C   0  0  0  0  0  0  0  0  0  0  0  0
    4.3259   -1.9961    0.4996 C   0  0  0  0  0  0  0  0  0  0  0  0
    5.2925   -0.9766    0.2781 C   0  0  0  0  0  0  0  0  0  0  0  0
    5.0238    0.2994    0.5230 N   0  0  0  0  0  0  0  0  0  0  0  0
    2.0916   -2.8228    0.8958 C   0  0  0  0  0  0  0  0  0  0  0  0
    2.7528   -4.0515    1.2755 C   0  0  0  0  0  0  0  0  0  0  0  0
    4.0401   -4.2927    1.0645 N   0  0  0  0  0  0  0  0  0  0  0  0
    4.8050   -3.3312    0.5599 C   0  0  0  0  0  0  0  0  0  0  0  0
    6.1385   -3.6283    0.2174 C   0  0  0  0  0  0  0  0  0  0  0  0
    7.0389   -2.6387   -0.1651 C   0  0  0  0  0  0  0  0  0  0  0  0
    6.6058   -1.3217   -0.1165 C   0  0  0  0  0  0  0  0  0  0  0  0
    0.6965   -2.9818    0.6555 C   0  0  0  0  0  0  0  0  0  0  0  0
    0.0370   -4.0921    1.1939 C   0  0  0  0  0  0  0  0  0  0  0  0
    0.6634   -5.1353    1.8770 C   0  0  0  0  0  0  0  0  0  0  0  0
    2.0368   -5.1386    1.8285 C   0  0  0  0  0  0  0  0  0  0  0  0
    0.3450   -0.4210    1.4563 O   0  0  0  0  0  0  0  0  0  0  0  0
   -3.4814   -2.1208    0.0935 C   0  0  0  0  0  0  0  0  0  0  0  0
   -2.8432   -0.8783   -0.0195 C   0  0  0  0  0  0  0  0  0  0  0  0
   -3.4151    0.1495   -0.7958 C   0  0  0  0  0  0  0  0  0  0  0  0
   -4.6601   -0.1898   -1.4345 C   0  0  0  0  0  0  0  0  0  0  0  0
   -5.1218   -1.5269   -1.4879 C   0  0  0  0  0  0  0  0  0  0  0  0
   -4.5759   -2.5012   -0.6882 C   0  0  0  0  0  0  0  0  0  0  0  0
   -3.0137    1.5357   -0.7941 C   0  0  0  0  0  0  0  0  0  0  0  0
   -4.0914    2.4223   -1.0386 C   0  0  0  0  0  0  0  0  0  0  0  0
   -5.3303    1.9762   -1.5734 C   0  0  0  0  0  0  0  0  0  0  0  0
   -5.5381    0.6991   -1.8813 N   0  0  0  0  0  0  0  0  0  0  0  0
   -1.7251    2.1510   -0.6024 C   0  0  0  0  0  0  0  0  0  0  0  0
   -1.7413    3.5832   -0.4196 C   0  0  0  0  0  0  0  0  0  0  0  0
   -2.8362    4.3372   -0.3647 N   0  0  0  0  0  0  0  0  0  0  0  0
   -3.9883    3.8069   -0.7465 C   0  0  0  0  0  0  0  0  0  0  0  0
   -5.1051    4.6586   -0.8816 C   0  0  0  0  0  0  0  0  0  0  0  0
   -6.3118    4.2155   -1.4059 C   0  0  0  0  0  0  0  0  0  0  0  0
   -6.3910    2.8819   -1.7845 C   0  0  0  0  0  0  0  0  0  0  0  0
   -0.4226    1.5838   -0.7829 C   0  0  0  0  0  0  0  0  0  0  0  0
    0.6736    2.4541   -0.9213 C   0  0  0  0  0  0  0  0  0  0  0  0
    0.6292    3.8452   -0.8400 C   0  0  0  0  0  0  0  0  0  0  0  0
   -0.5759    4.3838   -0.4671 C   0  0  0  0  0  0  0  0  0  0  0  0
   -1.7706   -0.6830    0.7387 O   0  0  0  0  0  0  0  0  0  0  0  0
   -0.4067   -0.7307    0.2611 B   0  0  0  0  0  0  0  0  0  0  0  0
   -0.0214   -2.1553   -0.1905 N   0  0  0  0  0  0  0  0  0  0  0  0
   -0.0273   -3.8271   -2.0252 C   0  0  0  0  0  0  0  0  0  0  0  0
   -0.8219   -2.8133   -1.2012 C   0  0  0  0  0  0  0  0  0  0  0  0
   -0.1780    0.2348   -0.9372 N   0  0  0  0  0  0  0  0  0  0  0  0
    0.5756    0.4012   -3.2800 C   0  0  0  0  0  0  0  0  0  0  0  0
    0.8738   -0.1247   -1.8789 C   0  0  0  0  0  0  0  0  0  0  0  0
   -7.4728    5.1841   -1.5448 C   0  0  0  0  0  0  0  0  0  0  0  0
   -8.7167    4.5213   -2.1401 C   0  0  0  0  0  0  0  0  0  0  0  0
   -7.8263    5.7223   -0.1510 C   0  0  0  0  0  0  0  0  0  0  0  0
   -7.0494    6.3409   -2.4607 C   0  0  0  0  0  0  0  0  0  0  0  0
    1.7962    4.7101   -1.2836 C   0  0  0  0  0  0  0  0  0  0  0  0
    1.5313    5.0306   -2.7657 C   0  0  0  0  0  0  0  0  0  0  0  0
    1.8673    6.0274   -0.5045 C   0  0  0  0  0  0  0  0  0  0  0  0
    3.1404    3.9849   -1.1690 C   0  0  0  0  0  0  0  0  0  0  0  0
   -5.1850   -3.8920   -0.6498 C   0  0  0  0  0  0  0  0  0  0  0  0
   -5.2658   -4.4395   -2.0817 C   0  0  0  0  0  0  0  0  0  0  0  0
   -4.3627   -4.8710    0.1910 C   0  0  0  0  0  0  0  0  0  0  0  0
   -6.5937   -3.7913   -0.0493 C   0  0  0  0  0  0  0  0  0  0  0  0
   -0.0915   -6.2545    2.5687 C   0  0  0  0  0  0  0  0  0  0  0  0
    0.2217   -7.5812    1.8636 C   0  0  0  0  0  0  0  0  0  0  0  0
    0.3773   -6.3164    4.0292 C   0  0  0  0  0  0  0  0  0  0  0  0
   -1.6061   -6.0377    2.5552 C   0  0  0  0  0  0  0  0  0  0  0  0
    8.4560   -3.0261   -0.5497 C   0  0  0  0  0  0  0  0  0  0  0  0
    9.2912   -1.8213   -0.9885 C   0  0  0  0  0  0  0  0  0  0  0  0
    9.1329   -3.6738    0.6666 C   0  0  0  0  0  0  0  0  0  0  0  0
    8.3992   -4.0277   -1.7116 C   0  0  0  0  0  0  0  0  0  0  0  0
    2.5312    3.5529    3.1107 C   0  0  0  0  0  0  0  0  0  0  0  0
    2.6611    3.0761    4.5668 C   0  0  0  0  0  0  0  0  0  0  0  0
    2.5925    3.9257    5.2416 H   0  0  0  0  0  0  0  0  0  0  0  0
    3.6190    2.5854    4.7240 H   0  0  0  0  0  0  0  0  0  0  0  0
    1.8709    2.3713    4.8147 H   0  0  0  0  0  0  0  0  0  0  0  0
    3.6739    4.5277    2.8129 C   0  0  0  0  0  0  0  0  0  0  0  0
    4.6374    4.0905    3.0604 H   0  0  0  0  0  0  0  0  0  0  0  0
    3.5550    5.4229    3.4185 H   0  0  0  0  0  0  0  0  0  0  0  0
    3.6799    4.8226    1.7670 H   0  0  0  0  0  0  0  0  0  0  0  0
    1.1875    4.2748    2.9367 C   0  0  0  0  0  0  0  0  0  0  0  0
    0.3831    3.7415    3.4356 H   0  0  0  0  0  0  0  0  0  0  0  0
    0.9305    4.3728    1.8845 H   0  0  0  0  0  0  0  0  0  0  0  0
    1.2423    5.2677    3.3760 H   0  0  0  0  0  0  0  0  0  0  0  0
    9.4166   -1.1108   -0.1751 H   0  0  0  0  0  0  0  0  0  0  0  0
    8.8381   -1.3178   -1.8393 H   0  0  0  0  0  0  0  0  0  0  0  0
   10.2798   -2.1602   -1.2879 H   0  0  0  0  0  0  0  0  0  0  0  0
    9.1510   -2.9800    1.5044 H   0  0  0  0  0  0  0  0  0  0  0  0
   10.1573   -3.9400    0.4194 H   0  0  0  0  0  0  0  0  0  0  0  0
    8.6142   -4.5755    0.9798 H   0  0  0  0  0  0  0  0  0  0  0  0
    3.2307    3.1924   -1.9084 H   0  0  0  0  0  0  0  0  0  0  0  0
    3.2704    3.5553   -0.1789 H   0  0  0  0  0  0  0  0  0  0  0  0
    3.9500    4.6880   -1.3484 H   0  0  0  0  0  0  0  0  0  0  0  0
    0.9981    6.6498   -0.6951 H   0  0  0  0  0  0  0  0  0  0  0  0
    2.7451    6.5876   -0.8173 H   0  0  0  0  0  0  0  0  0  0  0  0
    1.9397    5.8485    0.5640 H   0  0  0  0  0  0  0  0  0  0  0  0
    0.5895    5.5617   -2.8829 H   0  0  0  0  0  0  0  0  0  0  0  0
    1.4858    4.1182   -3.3571 H   0  0  0  0  0  0  0  0  0  0  0  0
    2.3313    5.6539   -3.1569 H   0  0  0  0  0  0  0  0  0  0  0  0
   -6.7690    5.9643   -3.4420 H   0  0  0  0  0  0  0  0  0  0  0  0
   -6.2064    6.8890   -2.0496 H   0  0  0  0  0  0  0  0  0  0  0  0
   -7.8770    7.0346   -2.5834 H   0  0  0  0  0  0  0  0  0  0  0  0
   -8.1038    4.9052    0.5116 H   0  0  0  0  0  0  0  0  0  0  0  0
   -8.6681    6.4060   -0.2228 H   0  0  0  0  0  0  0  0  0  0  0  0
   -6.9926    6.2572    0.2949 H   0  0  0  0  0  0  0  0  0  0  0  0
   -9.0661    3.7051   -1.5122 H   0  0  0  0  0  0  0  0  0  0  0  0
   -8.5223    4.1466   -3.1422 H   0  0  0  0  0  0  0  0  0  0  0  0
   -9.5162    5.2549   -2.2083 H   0  0  0  0  0  0  0  0  0  0  0  0
   -3.3543   -4.9694   -0.2071 H   0  0  0  0  0  0  0  0  0  0  0  0
   -4.8297   -5.8525    0.1602 H   0  0  0  0  0  0  0  0  0  0  0  0
   -4.3161   -4.5606    1.2319 H   0  0  0  0  0  0  0  0  0  0  0  0
   -7.2264   -3.1366   -0.6416 H   0  0  0  0  0  0  0  0  0  0  0  0
   -6.5467   -3.3972    0.9635 H   0  0  0  0  0  0  0  0  0  0  0  0
   -7.0544   -4.7753   -0.0152 H   0  0  0  0  0  0  0  0  0  0  0  0
   -4.2772   -4.4653   -2.5359 H   0  0  0  0  0  0  0  0  0  0  0  0
   -5.9131   -3.8312   -2.7055 H   0  0  0  0  0  0  0  0  0  0  0  0
   -5.6644   -5.4508   -2.0684 H   0  0  0  0  0  0  0  0  0  0  0  0
    7.9013   -3.5836   -2.5711 H   0  0  0  0  0  0  0  0  0  0  0  0
    7.8661   -4.9330   -1.4357 H   0  0  0  0  0  0  0  0  0  0  0  0
    9.4075   -4.3064   -2.0065 H   0  0  0  0  0  0  0  0  0  0  0  0
    7.2630   -0.4968   -0.3345 H   0  0  0  0  0  0  0  0  0  0  0  0
    6.4326   -4.6629    0.2914 H   0  0  0  0  0  0  0  0  0  0  0  0
    4.6424    2.4711    1.5821 H   0  0  0  0  0  0  0  0  0  0  0  0
    2.6321   -5.9690    2.1698 H   0  0  0  0  0  0  0  0  0  0  0  0
    0.5189    1.7806    2.5323 H   0  0  0  0  0  0  0  0  0  0  0  0
   -1.0338   -4.1092    1.0826 H   0  0  0  0  0  0  0  0  0  0  0  0
   -3.0772   -2.7816    0.8433 H   0  0  0  0  0  0  0  0  0  0  0  0
    1.6386    2.0086   -1.0786 H   0  0  0  0  0  0  0  0  0  0  0  0
   -6.0092   -1.6915   -2.0760 H   0  0  0  0  0  0  0  0  0  0  0  0
   -0.7334    5.4399   -0.3288 H   0  0  0  0  0  0  0  0  0  0  0  0
   -7.2793    2.4665   -2.2300 H   0  0  0  0  0  0  0  0  0  0  0  0
   -4.9588    5.6830   -0.5788 H   0  0  0  0  0  0  0  0  0  0  0  0
    1.4436   -6.5119    4.0953 H   0  0  0  0  0  0  0  0  0  0  0  0
   -0.1478   -7.1105    4.5539 H   0  0  0  0  0  0  0  0  0  0  0  0
    0.1694   -5.3750    4.5333 H   0  0  0  0  0  0  0  0  0  0  0  0
   -2.0022   -6.0861    1.5438 H   0  0  0  0  0  0  0  0  0  0  0  0
   -1.8687   -5.0823    3.0045 H   0  0  0  0  0  0  0  0  0  0  0  0
   -2.0867   -6.8222    3.1344 H   0  0  0  0  0  0  0  0  0  0  0  0
    1.2807   -7.8165    1.9150 H   0  0  0  0  0  0  0  0  0  0  0  0
   -0.0693   -7.5352    0.8160 H   0  0  0  0  0  0  0  0  0  0  0  0
   -0.3295   -8.3893    2.3376 H   0  0  0  0  0  0  0  0  0  0  0  0
    0.9165   -1.2108   -1.9022 H   0  0  0  0  0  0  0  0  0  0  0  0
    1.8701    0.2052   -1.5544 H   0  0  0  0  0  0  0  0  0  0  0  0
   -0.4009    0.0531   -3.6085 H   0  0  0  0  0  0  0  0  0  0  0  0
    1.3277    0.0366   -3.9748 H   0  0  0  0  0  0  0  0  0  0  0  0
    0.5766    1.4884   -3.3058 H   0  0  0  0  0  0  0  0  0  0  0  0
   -1.2104   -2.0262   -1.8518 H   0  0  0  0  0  0  0  0  0  0  0  0
   -1.6922   -3.3268   -0.7715 H   0  0  0  0  0  0  0  0  0  0  0  0
    0.8431   -3.3619   -2.4825 H   0  0  0  0  0  0  0  0  0  0  0  0
   -0.6605   -4.2220   -2.8153 H   0  0  0  0  0  0  0  0  0  0  0  0
    0.3122   -4.6542   -1.4061 H   0  0  0  0  0  0  0  0  0  0  0  0
  1  2  4  0  0  0  0
  2  3  4  0  0  0  0
  3  4  1  0  0  0  0
  4  5  4  0  0  0  0
  1  6  4  0  0  0  0
  5  6  4  0  0  0  0
  3  7  4  0  0  0  0
  7  8  4  0  0  0  0
  8  9  1  0  0  0  0
  4 10  4  0  0  0  0
  9 10  4  0  0  0  0
  7 11  4  0  0  0  0
 11 12  1  0  0  0  0
 12 13  4  0  0  0  0
  8 14  1  0  0  0  0
 13 14  4  0  0  0  0
 14 15  4  0  0  0  0
 15 16  4  0  0  0  0
  9 17  4  0  0  0  0
 16 17  4  0  0  0  0
 11 18  4  0  0  0  0
 18 19  4  0  0  0  0
 19 20  4  0  0  0  0
 12 21  4  0  0  0  0
 20 21  4  0  0  0  0
  2 22  1  0  0  0  0
 23 24  4  0  0  0  0
 24 25  4  0  0  0  0
 25 26  1  0  0  0  0
 26 27  4  0  0  0  0
 23 28  4  0  0  0  0
 27 28  4  0  0  0  0
 25 29  1  0  0  0  0
 29 30  4  0  0  0  0
 30 31  1  0  0  0  0
 26 32  4  0  0  0  0
 31 32  4  0  0  0  0
 29 33  4  0  0  0  0
 33 34  1  0  0  0  0
 34 35  4  0  0  0  0
 30 36  1  0  0  0  0
 35 36  4  0  0  0  0
 36 37  4  0  0  0  0
 37 38  4  0  0  0  0
 31 39  4  0  0  0  0
 38 39  4  0  0  0  0
 33 40  4  0  0  0  0
 40 41  4  0  0  0  0
 41 42  4  0  0  0  0
 34 43  4  0  0  0  0
 42 43  4  0  0  0  0
 24 44  1  0  0  0  0
 22 45  1  0  0  0  0
 44 45  1  0  0  0  0
 18 46  1  0  0  0  0
 45 46  1  0  0  0  0
 46 48  1  0  0  0  0
 47 48  1  0  0  0  0
 40 49  1  0  0  0  0
 45 49  1  0  0  0  0
 49 51  1  0  0  0  0
 50 51  1  0  0  0  0
 38 52  1  0  0  0  0
 52 53  1  0  0  0  0
 52 54  1  0  0  0  0
 52 55  1  0  0  0  0
 42 56  1  0  0  0  0
 56 57  1  0  0  0  0
 56 58  1  0  0  0  0
 56 59  1  0  0  0  0
 28 60  1  0  0  0  0
 60 61  1  0  0  0  0
 60 62  1  0  0  0  0
 60 63  1  0  0  0  0
 20 64  1  0  0  0  0
 64 65  1  0  0  0  0
 64 66  1  0  0  0  0
 64 67  1  0  0  0  0
 16 68  1  0  0  0  0
 68 69  1  0  0  0  0
 68 70  1  0  0  0  0
 68 71  1  0  0  0  0
  6 72  1  0  0  0  0
 72 73  1  0  0  0  0
 73 74  1  0  0  0  0
 73 75  1  0  0  0  0
 73 76  1  0  0  0  0
 72 77  1  0  0  0  0
 77 78  1  0  0  0  0
 77 79  1  0  0  0  0
 77 80  1  0  0  0  0
 72 81  1  0  0  0  0
 81 82  1  0  0  0  0
 81 83  1  0  0  0  0
 81 84  1  0  0  0  0
 69 85  1  0  0  0  0
 69 86  1  0  0  0  0
 69 87  1  0  0  0  0
 70 88  1  0  0  0  0
 70 89  1  0  0  0  0
 70 90  1  0  0  0  0
 59 91  1  0  0  0  0
 59 92  1  0  0  0  0
 59 93  1  0  0  0  0
 58 94  1  0  0  0  0
 58 95  1  0  0  0  0
 58 96  1  0  0  0  0
 57 97  1  0  0  0  0
 57 98  1  0  0  0  0
 57 99  1  0  0  0  0
 55100  1  0  0  0  0
 55101  1  0  0  0  0
 55102  1  0  0  0  0
 54103  1  0  0  0  0
 54104  1  0  0  0  0
 54105  1  0  0  0  0
 53106  1  0  0  0  0
 53107  1  0  0  0  0
 53108  1  0  0  0  0
 62109  1  0  0  0  0
 62110  1  0  0  0  0
 62111  1  0  0  0  0
 63112  1  0  0  0  0
 63113  1  0  0  0  0
 63114  1  0  0  0  0
 61115  1  0  0  0  0
 61116  1  0  0  0  0
 61117  1  0  0  0  0
 71118  1  0  0  0  0
 71119  1  0  0  0  0
 71120  1  0  0  0  0
 17121  1  0  0  0  0
 15122  1  0  0  0  0
  5123  1  0  0  0  0
 21124  1  0  0  0  0
  1125  1  0  0  0  0
 19126  1  0  0  0  0
 23127  1  0  0  0  0
 41128  1  0  0  0  0
 27129  1  0  0  0  0
 43130  1  0  0  0  0
 39131  1  0  0  0  0
 37132  1  0  0  0  0
 66133  1  0  0  0  0
 66134  1  0  0  0  0
 66135  1  0  0  0  0
 67136  1  0  0  0  0
 67137  1  0  0  0  0
 67138  1  0  0  0  0
 65139  1  0  0  0  0
 65140  1  0  0  0  0
 65141  1  0  0  0  0
 51142  1  0  0  0  0
 51143  1  0  0  0  0
 50144  1  0  0  0  0
 50145  1  0  0  0  0
 50146  1  0  0  0  0
 48147  1  0  0  0  0
 48148  1  0  0  0  0
 47149  1  0  0  0  0
 47150  1  0  0  0  0
 47151  1  0  0  0  0
M  CHG  1   1   1
M  END
