 energy: -414.742531608229 gnorm: 0.000652283764 xtb: 6.6.1 (8d0f1dd)
          11072416093D

302324  0     0  0            999 V2000
    1.4692    1.1418    2.8162 C   0  0  0  0  0  0  0  0  0  0  0  0
    1.3386    0.1243    1.8766 C   0  0  0  0  0  0  0  0  0  0  0  0
    2.4731   -0.3368    1.1607 C   0  0  0  0  0  0  0  0  0  0  0  0
    3.6251    0.5168    1.2262 C   0  0  0  0  0  0  0  0  0  0  0  0
    3.6839    1.5949    2.1374 C   0  0  0  0  0  0  0  0  0  0  0  0
    2.6550    1.8556    3.0122 C   0  0  0  0  0  0  0  0  0  0  0  0
    2.6242   -1.6265    0.5487 C   0  0  0  0  0  0  0  0  0  0  0  0
    3.9147   -1.8883    0.0357 C   0  0  0  0  0  0  0  0  0  0  0  0
    4.8821   -0.8534   -0.0987 C   0  0  0  0  0  0  0  0  0  0  0  0
    4.7302    0.3241    0.4982 N   0  0  0  0  0  0  0  0  0  0  0  0
    1.7272   -2.7568    0.5833 C   0  0  0  0  0  0  0  0  0  0  0  0
    2.3773   -4.0432    0.5755 C   0  0  0  0  0  0  0  0  0  0  0  0
    3.6088   -4.2539    0.1117 N   0  0  0  0  0  0  0  0  0  0  0  0
    4.3272   -3.2074   -0.2907 C   0  0  0  0  0  0  0  0  0  0  0  0
    5.5556   -3.4227   -0.9395 C   0  0  0  0  0  0  0  0  0  0  0  0
    6.4179   -2.3740   -1.2397 C   0  0  0  0  0  0  0  0  0  0  0  0
    6.0833   -1.1055   -0.7977 C   0  0  0  0  0  0  0  0  0  0  0  0
    0.3029   -2.8373    0.5349 C   0  0  0  0  0  0  0  0  0  0  0  0
   -0.3242   -4.0212    0.9315 C   0  0  0  0  0  0  0  0  0  0  0  0
    0.3522   -5.1959    1.2589 C   0  0  0  0  0  0  0  0  0  0  0  0
    1.6987   -5.2111    0.9892 C   0  0  0  0  0  0  0  0  0  0  0  0
    0.1397   -0.4238    1.7588 O   0  0  0  0  0  0  0  0  0  0  0  0
   -3.7334   -1.6920    0.8834 C   0  0  0  0  0  0  0  0  0  0  0  0
   -3.1060   -0.5326    0.4325 C   0  0  0  0  0  0  0  0  0  0  0  0
   -3.6735    0.2369   -0.6142 C   0  0  0  0  0  0  0  0  0  0  0  0
   -4.8438   -0.3276   -1.2248 C   0  0  0  0  0  0  0  0  0  0  0  0
   -5.3505   -1.5845   -0.8263 C   0  0  0  0  0  0  0  0  0  0  0  0
   -4.8569   -2.2481    0.2689 C   0  0  0  0  0  0  0  0  0  0  0  0
   -3.2834    1.5669   -0.9991 C   0  0  0  0  0  0  0  0  0  0  0  0
   -4.2567    2.2604   -1.7558 C   0  0  0  0  0  0  0  0  0  0  0  0
   -5.3538    1.5831   -2.3583 C   0  0  0  0  0  0  0  0  0  0  0  0
   -5.5845    0.2907   -2.1484 N   0  0  0  0  0  0  0  0  0  0  0  0
   -2.0987    2.3282   -0.6683 C   0  0  0  0  0  0  0  0  0  0  0  0
   -2.2385    3.7590   -0.7535 C   0  0  0  0  0  0  0  0  0  0  0  0
   -3.2748    4.3967   -1.3011 N   0  0  0  0  0  0  0  0  0  0  0  0
   -4.2070    3.6718   -1.9129 C   0  0  0  0  0  0  0  0  0  0  0  0
   -5.1746    4.3401   -2.6836 C   0  0  0  0  0  0  0  0  0  0  0  0
   -6.1880    3.6586   -3.3445 C   0  0  0  0  0  0  0  0  0  0  0  0
   -6.2602    2.2867   -3.1803 C   0  0  0  0  0  0  0  0  0  0  0  0
   -0.7730    1.8731   -0.4202 C   0  0  0  0  0  0  0  0  0  0  0  0
    0.2388    2.7936   -0.1336 C   0  0  0  0  0  0  0  0  0  0  0  0
    0.0631    4.1758   -0.0987 C   0  0  0  0  0  0  0  0  0  0  0  0
   -1.1954    4.6369   -0.3862 C   0  0  0  0  0  0  0  0  0  0  0  0
   -2.0002   -0.1703    1.0731 O   0  0  0  0  0  0  0  0  0  0  0  0
   -0.6664   -0.4741    0.5417 B   0  0  0  0  0  0  0  0  0  0  0  0
   -0.4907   -1.8688   -0.0536 N   0  0  0  0  0  0  0  0  0  0  0  0
   -0.6564   -3.1728   -2.1578 C   0  0  0  0  0  0  0  0  0  0  0  0
   -1.3742   -2.3288   -1.1024 C   0  0  0  0  0  0  0  0  0  0  0  0
   -0.3824    0.5447   -0.5704 N   0  0  0  0  0  0  0  0  0  0  0  0
    0.3804    0.7616   -2.8891 C   0  0  0  0  0  0  0  0  0  0  0  0
    0.7341    0.3297   -1.4655 C   0  0  0  0  0  0  0  0  0  0  0  0
   -7.1791    4.4423   -4.1926 C   0  0  0  0  0  0  0  0  0  0  0  0
   -8.2293    3.5442   -4.8512 C   0  0  0  0  0  0  0  0  0  0  0  0
   -7.9057    5.4570   -3.2992 C   0  0  0  0  0  0  0  0  0  0  0  0
   -6.4138    5.1799   -5.2997 C   0  0  0  0  0  0  0  0  0  0  0  0
    1.1999    5.1564    0.1440 C   0  0  0  0  0  0  0  0  0  0  0  0
    1.3058    6.1001   -1.0639 C   0  0  0  0  0  0  0  0  0  0  0  0
    0.8953    5.9743    1.4047 C   0  0  0  0  0  0  0  0  0  0  0  0
    2.5492    4.4568    0.3130 C   0  0  0  0  0  0  0  0  0  0  0  0
   -5.4757   -3.5569    0.7368 C   0  0  0  0  0  0  0  0  0  0  0  0
   -5.0360   -4.6615   -0.2347 C   0  0  0  0  0  0  0  0  0  0  0  0
   -5.0349   -3.9292    2.1553 C   0  0  0  0  0  0  0  0  0  0  0  0
   -7.0067   -3.4542    0.7340 C   0  0  0  0  0  0  0  0  0  0  0  0
   -0.3418   -6.4409    1.7861 C   0  0  0  0  0  0  0  0  0  0  0  0
   -0.2820   -7.5369    0.7134 C   0  0  0  0  0  0  0  0  0  0  0  0
    0.3859   -6.9129    3.0523 C   0  0  0  0  0  0  0  0  0  0  0  0
   -1.8073   -6.1872    2.1465 C   0  0  0  0  0  0  0  0  0  0  0  0
    7.7132   -2.6707   -1.9819 C   0  0  0  0  0  0  0  0  0  0  0  0
    8.5309   -1.4081   -2.2662 C   0  0  0  0  0  0  0  0  0  0  0  0
    8.5699   -3.6187   -1.1317 C   0  0  0  0  0  0  0  0  0  0  0  0
    7.3768   -3.3358   -3.3237 C   0  0  0  0  0  0  0  0  0  0  0  0
    2.8021    2.8034    4.1915 C   0  0  0  0  0  0  0  0  0  0  0  0
    3.3396    1.9583    5.3558 C   0  0  0  0  0  0  0  0  0  0  0  0
    3.4727    2.5752    6.2417 H   0  0  0  0  0  0  0  0  0  0  0  0
    4.2984    1.5179    5.0903 H   0  0  0  0  0  0  0  0  0  0  0  0
    2.6472    1.1549    5.5954 H   0  0  0  0  0  0  0  0  0  0  0  0
    3.7897    3.9433    3.9206 C   0  0  0  0  0  0  0  0  0  0  0  0
    4.7883    3.5649    3.7213 H   0  0  0  0  0  0  0  0  0  0  0  0
    3.8464    4.5844    4.7984 H   0  0  0  0  0  0  0  0  0  0  0  0
    3.4667    4.5460    3.0764 H   0  0  0  0  0  0  0  0  0  0  0  0
    1.4602    3.4148    4.6051 C   0  0  0  0  0  0  0  0  0  0  0  0
    0.8060    2.6734    5.0546 H   0  0  0  0  0  0  0  0  0  0  0  0
    0.9500    3.8475    3.7475 H   0  0  0  0  0  0  0  0  0  0  0  0
    1.6248    4.1946    5.3453 H   0  0  0  0  0  0  0  0  0  0  0  0
    8.8464   -0.9312   -1.3416 H   0  0  0  0  0  0  0  0  0  0  0  0
    7.9562   -0.6965   -2.8543 H   0  0  0  0  0  0  0  0  0  0  0  0
    9.4236   -1.6724   -2.8307 H   0  0  0  0  0  0  0  0  0  0  0  0
    8.7881   -3.1632   -0.1682 H   0  0  0  0  0  0  0  0  0  0  0  0
    9.5109   -3.8305   -1.6364 H   0  0  0  0  0  0  0  0  0  0  0  0
    8.0571   -4.5597   -0.9537 H   0  0  0  0  0  0  0  0  0  0  0  0
    2.8191    3.9094   -0.5876 H   0  0  0  0  0  0  0  0  0  0  0  0
    2.5334    3.7630    1.1485 H   0  0  0  0  0  0  0  0  0  0  0  0
    3.3248    5.1984    0.4983 H   0  0  0  0  0  0  0  0  0  0  0  0
   -0.0470    6.5064    1.3048 H   0  0  0  0  0  0  0  0  0  0  0  0
    1.6857    6.7005    1.5864 H   0  0  0  0  0  0  0  0  0  0  0  0
    0.8260    5.3183    2.2686 H   0  0  0  0  0  0  0  0  0  0  0  0
    0.4046    6.6939   -1.1855 H   0  0  0  0  0  0  0  0  0  0  0  0
    1.4634    5.5279   -1.9759 H   0  0  0  0  0  0  0  0  0  0  0  0
    2.1469    6.7787   -0.9327 H   0  0  0  0  0  0  0  0  0  0  0  0
   -5.8878    4.4662   -5.9306 H   0  0  0  0  0  0  0  0  0  0  0  0
   -5.6832    5.8669   -4.8823 H   0  0  0  0  0  0  0  0  0  0  0  0
   -7.1039    5.7482   -5.9209 H   0  0  0  0  0  0  0  0  0  0  0  0
   -8.4305    4.9412   -2.4977 H   0  0  0  0  0  0  0  0  0  0  0  0
   -8.6318    6.0207   -3.8824 H   0  0  0  0  0  0  0  0  0  0  0  0
   -7.2075    6.1584   -2.8514 H   0  0  0  0  0  0  0  0  0  0  0  0
   -8.8191    3.0213   -4.1023 H   0  0  0  0  0  0  0  0  0  0  0  0
   -7.7613    2.8141   -5.5071 H   0  0  0  0  0  0  0  0  0  0  0  0
   -8.9052    4.1530   -5.4495 H   0  0  0  0  0  0  0  0  0  0  0  0
   -3.9707   -4.1390    2.2005 H   0  0  0  0  0  0  0  0  0  0  0  0
   -5.5624   -4.8239    2.4816 H   0  0  0  0  0  0  0  0  0  0  0  0
   -5.2625   -3.1237    2.8495 H   0  0  0  0  0  0  0  0  0  0  0  0
   -7.3965   -3.3209   -0.2706 H   0  0  0  0  0  0  0  0  0  0  0  0
   -7.3271   -2.6109    1.3416 H   0  0  0  0  0  0  0  0  0  0  0  0
   -7.4418   -4.3633    1.1457 H   0  0  0  0  0  0  0  0  0  0  0  0
   -3.9509   -4.7450   -0.2495 H   0  0  0  0  0  0  0  0  0  0  0  0
   -5.3701   -4.4371   -1.2449 H   0  0  0  0  0  0  0  0  0  0  0  0
   -5.4526   -5.6212    0.0664 H   0  0  0  0  0  0  0  0  0  0  0  0
    6.7619   -2.6714   -3.9275 H   0  0  0  0  0  0  0  0  0  0  0  0
    6.8320   -4.2642   -3.1780 H   0  0  0  0  0  0  0  0  0  0  0  0
    8.2898   -3.5571   -3.8737 H   0  0  0  0  0  0  0  0  0  0  0  0
    6.7397   -0.2613   -0.9224 H   0  0  0  0  0  0  0  0  0  0  0  0
    5.8028   -4.4457   -1.1741 H   0  0  0  0  0  0  0  0  0  0  0  0
    4.6115    2.1424    2.1483 H   0  0  0  0  0  0  0  0  0  0  0  0
    2.2942   -6.1082    1.0370 H   0  0  0  0  0  0  0  0  0  0  0  0
    0.5806    1.3585    3.3851 H   0  0  0  0  0  0  0  0  0  0  0  0
   -1.4002   -3.9919    0.9726 H   0  0  0  0  0  0  0  0  0  0  0  0
   -3.2619   -2.1603    1.7320 H   0  0  0  0  0  0  0  0  0  0  0  0
    1.2094    2.3827    0.0872 H   0  0  0  0  0  0  0  0  0  0  0  0
   -6.2014   -1.9380   -1.3849 H   0  0  0  0  0  0  0  0  0  0  0  0
   -1.4302    5.6871   -0.4529 H   0  0  0  0  0  0  0  0  0  0  0  0
   -7.0311    1.6910   -3.6386 H   0  0  0  0  0  0  0  0  0  0  0  0
   -5.0788    5.4126   -2.7402 H   0  0  0  0  0  0  0  0  0  0  0  0
    1.4231   -7.1572    2.8432 H   0  0  0  0  0  0  0  0  0  0  0  0
   -0.0996   -7.7986    3.4583 H   0  0  0  0  0  0  0  0  0  0  0  0
    0.3672   -6.1309    3.8082 H   0  0  0  0  0  0  0  0  0  0  0  0
   -2.3954   -5.9570    1.2614 H   0  0  0  0  0  0  0  0  0  0  0  0
   -1.8907   -5.3689    2.8581 H   0  0  0  0  0  0  0  0  0  0  0  0
   -2.2319   -7.0791    2.6041 H   0  0  0  0  0  0  0  0  0  0  0  0
    0.7471   -7.7799    0.4629 H   0  0  0  0  0  0  0  0  0  0  0  0
   -0.7841   -7.2048   -0.1934 H   0  0  0  0  0  0  0  0  0  0  0  0
   -0.7735   -8.4404    1.0698 H   0  0  0  0  0  0  0  0  0  0  0  0
    0.9500   -0.7393   -1.4471 H   0  0  0  0  0  0  0  0  0  0  0  0
    1.6495    0.8533   -1.1535 H   0  0  0  0  0  0  0  0  0  0  0  0
   -0.5160    0.2447   -3.2244 H   0  0  0  0  0  0  0  0  0  0  0  0
    1.1995    0.5240   -3.5646 H   0  0  0  0  0  0  0  0  0  0  0  0
    0.1936    1.8330   -2.9266 H   0  0  0  0  0  0  0  0  0  0  0  0
   -1.7781   -1.4310   -1.5744 H   0  0  0  0  0  0  0  0  0  0  0  0
   -2.2265   -2.9032   -0.7127 H   0  0  0  0  0  0  0  0  0  0  0  0
    0.1804   -2.6229   -2.5820 H   0  0  0  0  0  0  0  0  0  0  0  0
   -1.3529   -3.4192   -2.9561 H   0  0  0  0  0  0  0  0  0  0  0  0
   -0.2767   -4.0965   -1.7265 H   0  0  0  0  0  0  0  0  0  0  0  0
    5.0456   -0.8096   11.9413 C   0  0  0  0  0  0  0  0  0  0  0  0
    4.5462   -1.9262   11.2879 C   0  0  0  0  0  0  0  0  0  0  0  0
    5.4193   -2.9280   10.7946 C   0  0  0  0  0  0  0  0  0  0  0  0
    6.8130   -2.5892   10.8105 C   0  0  0  0  0  0  0  0  0  0  0  0
    7.2737   -1.4140   11.4491 C   0  0  0  0  0  0  0  0  0  0  0  0
    6.4125   -0.5519   12.0801 C   0  0  0  0  0  0  0  0  0  0  0  0
    5.0516   -4.2743   10.4516 C   0  0  0  0  0  0  0  0  0  0  0  0
    6.1409   -5.1228   10.1521 C   0  0  0  0  0  0  0  0  0  0  0  0
    7.4515   -4.6059    9.9507 C   0  0  0  0  0  0  0  0  0  0  0  0
    7.7703   -3.3595   10.2842 N   0  0  0  0  0  0  0  0  0  0  0  0
    3.7681   -4.9243   10.5699 C   0  0  0  0  0  0  0  0  0  0  0  0
    3.8343   -6.3339   10.8644 C   0  0  0  0  0  0  0  0  0  0  0  0
    4.8905   -7.1039   10.6040 N   0  0  0  0  0  0  0  0  0  0  0  0
    5.9900   -6.5351   10.1139 C   0  0  0  0  0  0  0  0  0  0  0  0
    7.0460   -7.3477    9.6668 C   0  0  0  0  0  0  0  0  0  0  0  0
    8.2732   -6.8119    9.2929 C   0  0  0  0  0  0  0  0  0  0  0  0
    8.4707   -5.4524    9.4615 C   0  0  0  0  0  0  0  0  0  0  0  0
    2.4380   -4.4444   10.3722 C   0  0  0  0  0  0  0  0  0  0  0  0
    1.3697   -5.1763   10.8958 C   0  0  0  0  0  0  0  0  0  0  0  0
    1.4938   -6.4264   11.5004 C   0  0  0  0  0  0  0  0  0  0  0  0
    2.7231   -7.0279   11.3917 C   0  0  0  0  0  0  0  0  0  0  0  0
    3.2247   -2.0376   11.2185 O   0  0  0  0  0  0  0  0  0  0  0  0
   -0.8476   -1.7585    9.8112 C   0  0  0  0  0  0  0  0  0  0  0  0
    0.2656   -0.9406    9.6150 C   0  0  0  0  0  0  0  0  0  0  0  0
    0.2157    0.1400    8.7082 C   0  0  0  0  0  0  0  0  0  0  0  0
   -1.0311    0.3013    8.0141 C   0  0  0  0  0  0  0  0  0  0  0  0
   -2.0451   -0.6781    8.0928 C   0  0  0  0  0  0  0  0  0  0  0  0
   -1.9951   -1.6896    9.0187 C   0  0  0  0  0  0  0  0  0  0  0  0
    1.1988    1.1890    8.5908 C   0  0  0  0  0  0  0  0  0  0  0  0
    0.6525    2.4118    8.1293 C   0  0  0  0  0  0  0  0  0  0  0  0
   -0.6250    2.4791    7.5066 C   0  0  0  0  0  0  0  0  0  0  0  0
   -1.3889    1.4014    7.3517 N   0  0  0  0  0  0  0  0  0  0  0  0
    2.6170    1.1954    8.8620 C   0  0  0  0  0  0  0  0  0  0  0  0
    3.2235    2.5012    8.9290 C   0  0  0  0  0  0  0  0  0  0  0  0
    2.5805    3.6640    8.7837 N   0  0  0  0  0  0  0  0  0  0  0  0
    1.3498    3.6378    8.2870 C   0  0  0  0  0  0  0  0  0  0  0  0
    0.7620    4.8564    7.8955 C   0  0  0  0  0  0  0  0  0  0  0  0
   -0.4670    4.9064    7.2531 C   0  0  0  0  0  0  0  0  0  0  0  0
   -1.1328    3.7106    7.0425 C   0  0  0  0  0  0  0  0  0  0  0  0
    3.5408    0.0993    8.8650 C   0  0  0  0  0  0  0  0  0  0  0  0
    4.9160    0.3774    8.8185 C   0  0  0  0  0  0  0  0  0  0  0  0
    5.4865    1.6480    8.8129 C   0  0  0  0  0  0  0  0  0  0  0  0
    4.6212    2.6980    8.9740 C   0  0  0  0  0  0  0  0  0  0  0  0
    1.3178   -1.1506   10.4051 O   0  0  0  0  0  0  0  0  0  0  0  0
    2.4666   -1.9320    9.9779 B   0  0  0  0  0  0  0  0  0  0  0  0
    2.1301   -3.3698    9.5539 N   0  0  0  0  0  0  0  0  0  0  0  0
    1.4672   -4.8612    7.6780 C   0  0  0  0  0  0  0  0  0  0  0  0
    1.1498   -3.6218    8.5188 C   0  0  0  0  0  0  0  0  0  0  0  0
    3.1692   -1.2304    8.7799 N   0  0  0  0  0  0  0  0  0  0  0  0
    4.0307   -1.5720    6.4925 C   0  0  0  0  0  0  0  0  0  0  0  0
    3.9967   -2.0754    7.9326 C   0  0  0  0  0  0  0  0  0  0  0  0
   -1.0238    6.2502    6.8073 C   0  0  0  0  0  0  0  0  0  0  0  0
   -2.3931    6.1237    6.1356 C   0  0  0  0  0  0  0  0  0  0  0  0
   -1.1709    7.1579    8.0365 C   0  0  0  0  0  0  0  0  0  0  0  0
   -0.0542    6.8878    5.8029 C   0  0  0  0  0  0  0  0  0  0  0  0
    6.9508    1.8801    8.4712 C   0  0  0  0  0  0  0  0  0  0  0  0
    6.9819    2.2695    6.9830 C   0  0  0  0  0  0  0  0  0  0  0  0
    7.5578    3.0251    9.2898 C   0  0  0  0  0  0  0  0  0  0  0  0
    7.8090    0.6278    8.6654 C   0  0  0  0  0  0  0  0  0  0  0  0
   -3.1671   -2.6486    9.1610 C   0  0  0  0  0  0  0  0  0  0  0  0
   -3.4608   -3.2854    7.7955 C   0  0  0  0  0  0  0  0  0  0  0  0
   -2.8893   -3.7751   10.1584 C   0  0  0  0  0  0  0  0  0  0  0  0
   -4.3925   -1.8603    9.6424 C   0  0  0  0  0  0  0  0  0  0  0  0
    0.3315   -7.1548   12.1549 C   0  0  0  0  0  0  0  0  0  0  0  0
   -0.0637   -8.3479   11.2740 C   0  0  0  0  0  0  0  0  0  0  0  0
    0.7720   -7.6553   13.5372 C   0  0  0  0  0  0  0  0  0  0  0  0
   -0.8924   -6.2552   12.3440 C   0  0  0  0  0  0  0  0  0  0  0  0
    9.3583   -7.7410    8.7681 C   0  0  0  0  0  0  0  0  0  0  0  0
   10.6356   -6.9928    8.3779 C   0  0  0  0  0  0  0  0  0  0  0  0
    9.7121   -8.7635    9.8567 C   0  0  0  0  0  0  0  0  0  0  0  0
    8.8296   -8.4676    7.5238 C   0  0  0  0  0  0  0  0  0  0  0  0
    6.8646    0.6175   12.9377 C   0  0  0  0  0  0  0  0  0  0  0  0
    6.6797    0.2022   14.4055 C   0  0  0  0  0  0  0  0  0  0  0  0
    6.9536    1.0219   15.0676 H   0  0  0  0  0  0  0  0  0  0  0  0
    7.3058   -0.6572   14.6373 H   0  0  0  0  0  0  0  0  0  0  0  0
    5.6447   -0.0702   14.5972 H   0  0  0  0  0  0  0  0  0  0  0  0
    8.3388    0.9675   12.7148 C   0  0  0  0  0  0  0  0  0  0  0  0
    8.9838    0.1454   13.0145 H   0  0  0  0  0  0  0  0  0  0  0  0
    8.6052    1.8365   13.3145 H   0  0  0  0  0  0  0  0  0  0  0  0
    8.5313    1.1996   11.6708 H   0  0  0  0  0  0  0  0  0  0  0  0
    6.0041    1.8570   12.6510 C   0  0  0  0  0  0  0  0  0  0  0  0
    5.0198    1.7651   13.1013 H   0  0  0  0  0  0  0  0  0  0  0  0
    5.8699    1.9953   11.5811 H   0  0  0  0  0  0  0  0  0  0  0  0
    6.4755    2.7468   13.0651 H   0  0  0  0  0  0  0  0  0  0  0  0
   11.0803   -6.5025    9.2406 H   0  0  0  0  0  0  0  0  0  0  0  0
   10.4311   -6.2480    7.6127 H   0  0  0  0  0  0  0  0  0  0  0  0
   11.3628   -7.6981    7.9789 H   0  0  0  0  0  0  0  0  0  0  0  0
   10.0619   -8.2522   10.7513 H   0  0  0  0  0  0  0  0  0  0  0  0
   10.5000   -9.4282    9.5069 H   0  0  0  0  0  0  0  0  0  0  0  0
    8.8494   -9.3666   10.1254 H   0  0  0  0  0  0  0  0  0  0  0  0
    7.5553   -0.1412    7.9399 H   0  0  0  0  0  0  0  0  0  0  0  0
    7.6800    0.2163    9.6627 H   0  0  0  0  0  0  0  0  0  0  0  0
    8.8597    0.8767    8.5258 H   0  0  0  0  0  0  0  0  0  0  0  0
    7.0490    3.9651    9.0969 H   0  0  0  0  0  0  0  0  0  0  0  0
    8.6054    3.1527    9.0220 H   0  0  0  0  0  0  0  0  0  0  0  0
    7.4992    2.8139   10.3533 H   0  0  0  0  0  0  0  0  0  0  0  0
    6.3976    3.1698    6.8080 H   0  0  0  0  0  0  0  0  0  0  0  0
    6.5656    1.4707    6.3732 H   0  0  0  0  0  0  0  0  0  0  0  0
    8.0064    2.4496    6.6626 H   0  0  0  0  0  0  0  0  0  0  0  0
    0.0426    6.2562    4.9231 H   0  0  0  0  0  0  0  0  0  0  0  0
    0.9326    7.0232    6.2373 H   0  0  0  0  0  0  0  0  0  0  0  0
   -0.4264    7.8611    5.4887 H   0  0  0  0  0  0  0  0  0  0  0  0
   -1.8370    6.6987    8.7643 H   0  0  0  0  0  0  0  0  0  0  0  0
   -1.5879    8.1202    7.7453 H   0  0  0  0  0  0  0  0  0  0  0  0
   -0.2117    7.3324    8.5159 H   0  0  0  0  0  0  0  0  0  0  0  0
   -3.1229    5.6907    6.8157 H   0  0  0  0  0  0  0  0  0  0  0  0
   -2.3329    5.5095    5.2408 H   0  0  0  0  0  0  0  0  0  0  0  0
   -2.7471    7.1109    5.8436 H   0  0  0  0  0  0  0  0  0  0  0  0
   -2.0302   -4.3613    9.8395 H   0  0  0  0  0  0  0  0  0  0  0  0
   -3.7505   -4.4396   10.2097 H   0  0  0  0  0  0  0  0  0  0  0  0
   -2.7066   -3.3854   11.1568 H   0  0  0  0  0  0  0  0  0  0  0  0
   -4.6469   -1.0725    8.9391 H   0  0  0  0  0  0  0  0  0  0  0  0
   -4.1876   -1.4017   10.6076 H   0  0  0  0  0  0  0  0  0  0  0  0
   -5.2509   -2.5216    9.7475 H   0  0  0  0  0  0  0  0  0  0  0  0
   -2.5829   -3.8159    7.4321 H   0  0  0  0  0  0  0  0  0  0  0  0
   -3.7311   -2.5347    7.0595 H   0  0  0  0  0  0  0  0  0  0  0  0
   -4.2833   -3.9935    7.8802 H   0  0  0  0  0  0  0  0  0  0  0  0
    8.5690   -7.7468    6.7517 H   0  0  0  0  0  0  0  0  0  0  0  0
    7.9437   -9.0522    7.7553 H   0  0  0  0  0  0  0  0  0  0  0  0
    9.5897   -9.1389    7.1280 H   0  0  0  0  0  0  0  0  0  0  0  0
    9.4177   -4.9795    9.2654 H   0  0  0  0  0  0  0  0  0  0  0  0
    6.8590   -8.4094    9.6432 H   0  0  0  0  0  0  0  0  0  0  0  0
    8.3436   -1.2857   11.4578 H   0  0  0  0  0  0  0  0  0  0  0  0
    2.8973   -8.0570   11.6612 H   0  0  0  0  0  0  0  0  0  0  0  0
    4.3057   -0.1347   12.3395 H   0  0  0  0  0  0  0  0  0  0  0  0
    0.3987   -4.7171   10.8190 H   0  0  0  0  0  0  0  0  0  0  0  0
   -0.7586   -2.4697   10.6164 H   0  0  0  0  0  0  0  0  0  0  0  0
    5.5842   -0.4638    8.8045 H   0  0  0  0  0  0  0  0  0  0  0  0
   -2.9062   -0.5060    7.4678 H   0  0  0  0  0  0  0  0  0  0  0  0
    4.9404    3.7271    8.9911 H   0  0  0  0  0  0  0  0  0  0  0  0
   -2.0837    3.6611    6.5408 H   0  0  0  0  0  0  0  0  0  0  0  0
    1.3409    5.7458    8.0885 H   0  0  0  0  0  0  0  0  0  0  0  0
    1.6088   -8.3431   13.4603 H   0  0  0  0  0  0  0  0  0  0  0  0
   -0.0502   -8.1712   14.0303 H   0  0  0  0  0  0  0  0  0  0  0  0
    1.0765   -6.8158   14.1586 H   0  0  0  0  0  0  0  0  0  0  0  0
   -1.3370   -5.9899   11.3888 H   0  0  0  0  0  0  0  0  0  0  0  0
   -0.6249   -5.3457   12.8768 H   0  0  0  0  0  0  0  0  0  0  0  0
   -1.6474   -6.7816   12.9256 H   0  0  0  0  0  0  0  0  0  0  0  0
    0.7708   -9.0337   11.1536 H   0  0  0  0  0  0  0  0  0  0  0  0
   -0.3664   -8.0040   10.2869 H   0  0  0  0  0  0  0  0  0  0  0  0
   -0.8953   -8.8891   11.7219 H   0  0  0  0  0  0  0  0  0  0  0  0
    3.5511   -3.0673    7.9605 H   0  0  0  0  0  0  0  0  0  0  0  0
    5.0231   -2.1961    8.3063 H   0  0  0  0  0  0  0  0  0  0  0  0
    3.0190   -1.4668    6.1077 H   0  0  0  0  0  0  0  0  0  0  0  0
    4.5692   -2.2804    5.8668 H   0  0  0  0  0  0  0  0  0  0  0  0
    4.5233   -0.6049    6.4293 H   0  0  0  0  0  0  0  0  0  0  0  0
    1.1429   -2.7365    7.8790 H   0  0  0  0  0  0  0  0  0  0  0  0
    0.1347   -3.7368    8.9214 H   0  0  0  0  0  0  0  0  0  0  0  0
    2.4532   -4.7853    7.2256 H   0  0  0  0  0  0  0  0  0  0  0  0
    0.7305   -4.9532    6.8831 H   0  0  0  0  0  0  0  0  0  0  0  0
    1.4395   -5.7613    8.2885 H   0  0  0  0  0  0  0  0  0  0  0  0
  1  2  2  0  0  0  0
  1125  1  0  0  0  0
  2  3  1  0  0  0  0
  3  4  2  0  0  0  0
  3  7  1  0  0  0  0
  4  5  1  0  0  0  0
  5  6  2  0  0  0  0
  5123  1  0  0  0  0
  6  1  1  0  0  0  0
  6 72  1  0  0  0  0
  7  8  1  0  0  0  0
  7 11  2  0  0  0  0
  8  9  1  0  0  0  0
  9 10  2  0  0  0  0
 10  4  1  0  0  0  0
 11 12  1  0  0  0  0
 11 18  1  0  0  0  0
 12 13  2  0  0  0  0
 13 14  1  0  0  0  0
 14  8  1  0  0  0  0
 14 15  2  0  0  0  0
 15 16  1  0  0  0  0
 15122  1  0  0  0  0
 16 68  1  0  0  0  0
 16 17  2  0  0  0  0
 17  9  1  0  0  0  0
 17121  1  0  0  0  0
 18 46  1  0  0  0  0
 18 19  2  0  0  0  0
 19 20  1  0  0  0  0
 19126  1  0  0  0  0
 20 64  1  0  0  0  0
 20 21  2  0  0  0  0
 21 12  1  0  0  0  0
 21124  1  0  0  0  0
 22  2  1  0  0  0  0
 23 24  2  0  0  0  0
 23127  1  0  0  0  0
 24 25  1  0  0  0  0
 24 44  1  0  0  0  0
 25 26  2  0  0  0  0
 25 29  1  0  0  0  0
 26 27  1  0  0  0  0
 27 28  2  0  0  0  0
 27129  1  0  0  0  0
 28 60  1  0  0  0  0
 28 23  1  0  0  0  0
 29 33  2  0  0  0  0
 30 29  1  0  0  0  0
 30 31  1  0  0  0  0
 31 32  2  0  0  0  0
 32 26  1  0  0  0  0
 33 34  1  0  0  0  0
 33 40  1  0  0  0  0
 34 35  2  0  0  0  0
 35 36  1  0  0  0  0
 36 30  1  0  0  0  0
 36 37  2  0  0  0  0
 37 38  1  0  0  0  0
 37132  1  0  0  0  0
 38 52  1  0  0  0  0
 38 39  2  0  0  0  0
 39 31  1  0  0  0  0
 39131  1  0  0  0  0
 40 49  1  0  0  0  0
 40 41  2  0  0  0  0
 41 42  1  0  0  0  0
 41128  1  0  0  0  0
 42 56  1  0  0  0  0
 42 43  2  0  0  0  0
 43 34  1  0  0  0  0
 43130  1  0  0  0  0
 45 46  1  0  0  0  0
 45 49  1  0  0  0  0
 45 22  1  0  0  0  0
 45 44  1  0  0  0  0
 46 48  1  0  0  0  0
 47 48  1  0  0  0  0
 47149  1  0  0  0  0
 47150  1  0  0  0  0
 47151  1  0  0  0  0
 48147  1  0  0  0  0
 48148  1  0  0  0  0
 49 51  1  0  0  0  0
 50 51  1  0  0  0  0
 50144  1  0  0  0  0
 50145  1  0  0  0  0
 50146  1  0  0  0  0
 51142  1  0  0  0  0
 51143  1  0  0  0  0
 52 53  1  0  0  0  0
 52 54  1  0  0  0  0
 52 55  1  0  0  0  0
 53106  1  0  0  0  0
 53107  1  0  0  0  0
 53108  1  0  0  0  0
 54103  1  0  0  0  0
 54104  1  0  0  0  0
 54105  1  0  0  0  0
 55100  1  0  0  0  0
 55101  1  0  0  0  0
 55102  1  0  0  0  0
 56 57  1  0  0  0  0
 56 58  1  0  0  0  0
 56 59  1  0  0  0  0
 57 97  1  0  0  0  0
 57 98  1  0  0  0  0
 57 99  1  0  0  0  0
 58 94  1  0  0  0  0
 58 95  1  0  0  0  0
 58 96  1  0  0  0  0
 59 91  1  0  0  0  0
 59 92  1  0  0  0  0
 59 93  1  0  0  0  0
 60 61  1  0  0  0  0
 60 62  1  0  0  0  0
 60 63  1  0  0  0  0
 61115  1  0  0  0  0
 61116  1  0  0  0  0
 61117  1  0  0  0  0
 62109  1  0  0  0  0
 62110  1  0  0  0  0
 62111  1  0  0  0  0
 63112  1  0  0  0  0
 63113  1  0  0  0  0
 63114  1  0  0  0  0
 64 65  1  0  0  0  0
 64 66  1  0  0  0  0
 64 67  1  0  0  0  0
 65139  1  0  0  0  0
 65140  1  0  0  0  0
 65141  1  0  0  0  0
 66133  1  0  0  0  0
 66134  1  0  0  0  0
 66135  1  0  0  0  0
 67136  1  0  0  0  0
 67137  1  0  0  0  0
 67138  1  0  0  0  0
 68 69  1  0  0  0  0
 68 70  1  0  0  0  0
 68 71  1  0  0  0  0
 69 85  1  0  0  0  0
 69 86  1  0  0  0  0
 69 87  1  0  0  0  0
 70 88  1  0  0  0  0
 70 89  1  0  0  0  0
 70 90  1  0  0  0  0
 71118  1  0  0  0  0
 71119  1  0  0  0  0
 71120  1  0  0  0  0
 72 73  1  0  0  0  0
 72 77  1  0  0  0  0
 72 81  1  0  0  0  0
 73 74  1  0  0  0  0
 73 75  1  0  0  0  0
 73 76  1  0  0  0  0
 77 78  1  0  0  0  0
 77 79  1  0  0  0  0
 77 80  1  0  0  0  0
 81 82  1  0  0  0  0
 81 83  1  0  0  0  0
 81 84  1  0  0  0  0
152153  2  0  0  0  0
152276  1  0  0  0  0
153154  1  0  0  0  0
154155  2  0  0  0  0
154158  1  0  0  0  0
155156  1  0  0  0  0
156157  2  0  0  0  0
156274  1  0  0  0  0
157152  1  0  0  0  0
157223  1  0  0  0  0
158159  1  0  0  0  0
158162  2  0  0  0  0
159160  1  0  0  0  0
160161  2  0  0  0  0
161155  1  0  0  0  0
162163  1  0  0  0  0
162169  1  0  0  0  0
163164  2  0  0  0  0
164165  1  0  0  0  0
165159  1  0  0  0  0
165166  2  0  0  0  0
166167  1  0  0  0  0
166273  1  0  0  0  0
167219  1  0  0  0  0
167168  2  0  0  0  0
168160  1  0  0  0  0
168272  1  0  0  0  0
169197  1  0  0  0  0
169170  2  0  0  0  0
170171  1  0  0  0  0
170277  1  0  0  0  0
171215  1  0  0  0  0
171172  2  0  0  0  0
172163  1  0  0  0  0
172275  1  0  0  0  0
173153  1  0  0  0  0
174175  2  0  0  0  0
174278  1  0  0  0  0
175176  1  0  0  0  0
175195  1  0  0  0  0
176177  2  0  0  0  0
176180  1  0  0  0  0
177178  1  0  0  0  0
178179  2  0  0  0  0
178280  1  0  0  0  0
179211  1  0  0  0  0
179174  1  0  0  0  0
180184  2  0  0  0  0
181180  1  0  0  0  0
181182  1  0  0  0  0
182183  2  0  0  0  0
183177  1  0  0  0  0
184185  1  0  0  0  0
184191  1  0  0  0  0
185186  2  0  0  0  0
186187  1  0  0  0  0
187181  1  0  0  0  0
187188  2  0  0  0  0
188189  1  0  0  0  0
188283  1  0  0  0  0
189203  1  0  0  0  0
189190  2  0  0  0  0
190182  1  0  0  0  0
190282  1  0  0  0  0
191200  1  0  0  0  0
191192  2  0  0  0  0
192193  1  0  0  0  0
192279  1  0  0  0  0
193207  1  0  0  0  0
193194  2  0  0  0  0
194185  1  0  0  0  0
194281  1  0  0  0  0
196197  1  0  0  0  0
196200  1  0  0  0  0
196173  1  0  0  0  0
196195  1  0  0  0  0
197199  1  0  0  0  0
198199  1  0  0  0  0
198300  1  0  0  0  0
198301  1  0  0  0  0
198302  1  0  0  0  0
199298  1  0  0  0  0
199299  1  0  0  0  0
200202  1  0  0  0  0
201202  1  0  0  0  0
201295  1  0  0  0  0
201296  1  0  0  0  0
201297  1  0  0  0  0
202293  1  0  0  0  0
202294  1  0  0  0  0
203204  1  0  0  0  0
203205  1  0  0  0  0
203206  1  0  0  0  0
204257  1  0  0  0  0
204258  1  0  0  0  0
204259  1  0  0  0  0
205254  1  0  0  0  0
205255  1  0  0  0  0
205256  1  0  0  0  0
206251  1  0  0  0  0
206252  1  0  0  0  0
206253  1  0  0  0  0
207208  1  0  0  0  0
207209  1  0  0  0  0
207210  1  0  0  0  0
208248  1  0  0  0  0
208249  1  0  0  0  0
208250  1  0  0  0  0
209245  1  0  0  0  0
209246  1  0  0  0  0
209247  1  0  0  0  0
210242  1  0  0  0  0
210243  1  0  0  0  0
210244  1  0  0  0  0
211212  1  0  0  0  0
211213  1  0  0  0  0
211214  1  0  0  0  0
212266  1  0  0  0  0
212267  1  0  0  0  0
212268  1  0  0  0  0
213260  1  0  0  0  0
213261  1  0  0  0  0
213262  1  0  0  0  0
214263  1  0  0  0  0
214264  1  0  0  0  0
214265  1  0  0  0  0
215216  1  0  0  0  0
215217  1  0  0  0  0
215218  1  0  0  0  0
216290  1  0  0  0  0
216291  1  0  0  0  0
216292  1  0  0  0  0
217284  1  0  0  0  0
217285  1  0  0  0  0
217286  1  0  0  0  0
218287  1  0  0  0  0
218288  1  0  0  0  0
218289  1  0  0  0  0
219220  1  0  0  0  0
219221  1  0  0  0  0
219222  1  0  0  0  0
220236  1  0  0  0  0
220237  1  0  0  0  0
220238  1  0  0  0  0
221239  1  0  0  0  0
221240  1  0  0  0  0
221241  1  0  0  0  0
222269  1  0  0  0  0
222270  1  0  0  0  0
222271  1  0  0  0  0
223224  1  0  0  0  0
223228  1  0  0  0  0
223232  1  0  0  0  0
224225  1  0  0  0  0
224226  1  0  0  0  0
224227  1  0  0  0  0
228229  1  0  0  0  0
228230  1  0  0  0  0
228231  1  0  0  0  0
232233  1  0  0  0  0
232234  1  0  0  0  0
232235  1  0  0  0  0
M  CHG  1   1  -1
M  END
