 energy: -206.829175751721 gnorm: 0.000172560099 xtb: 6.6.1 (8d0f1dd)
          11072415513D

151162  0     0  0            999 V2000
    1.5601    1.5576    2.0582 C   0  0  0  0  0  0  0  0  0  0  0  0
    1.5421    0.2855    1.4948 C   0  0  0  0  0  0  0  0  0  0  0  0
    2.7388   -0.3200    1.0424 C   0  0  0  0  0  0  0  0  0  0  0  0
    3.8799    0.5548    0.9831 C   0  0  0  0  0  0  0  0  0  0  0  0
    3.8303    1.8716    1.5013 C   0  0  0  0  0  0  0  0  0  0  0  0
    2.7076    2.3547    2.1306 C   0  0  0  0  0  0  0  0  0  0  0  0
    2.9494   -1.7260    0.8385 C   0  0  0  0  0  0  0  0  0  0  0  0
    4.2987   -2.0915    0.6258 C   0  0  0  0  0  0  0  0  0  0  0  0
    5.3012   -1.1177    0.3610 C   0  0  0  0  0  0  0  0  0  0  0  0
    5.0733    0.1785    0.5287 N   0  0  0  0  0  0  0  0  0  0  0  0
    2.0315   -2.8233    1.0282 C   0  0  0  0  0  0  0  0  0  0  0  0
    2.6449   -4.0558    1.4699 C   0  0  0  0  0  0  0  0  0  0  0  0
    3.9264   -4.3470    1.2952 N   0  0  0  0  0  0  0  0  0  0  0  0
    4.7315   -3.4365    0.7584 C   0  0  0  0  0  0  0  0  0  0  0  0
    6.0584   -3.7953    0.4520 C   0  0  0  0  0  0  0  0  0  0  0  0
    6.9968   -2.8573    0.0325 C   0  0  0  0  0  0  0  0  0  0  0  0
    6.6067   -1.5266    0.0035 C   0  0  0  0  0  0  0  0  0  0  0  0
    0.6343   -2.9452    0.7691 C   0  0  0  0  0  0  0  0  0  0  0  0
   -0.0615   -4.0244    1.3179 C   0  0  0  0  0  0  0  0  0  0  0  0
    0.5174   -5.0694    2.0455 C   0  0  0  0  0  0  0  0  0  0  0  0
    1.8873   -5.1063    2.0462 C   0  0  0  0  0  0  0  0  0  0  0  0
    0.3753   -0.3450    1.4860 O   0  0  0  0  0  0  0  0  0  0  0  0
   -3.4767   -2.0070    0.2431 C   0  0  0  0  0  0  0  0  0  0  0  0
   -2.8281   -0.7808    0.0474 C   0  0  0  0  0  0  0  0  0  0  0  0
   -3.3910    0.1998   -0.7925 C   0  0  0  0  0  0  0  0  0  0  0  0
   -4.6407   -0.1678   -1.4058 C   0  0  0  0  0  0  0  0  0  0  0  0
   -5.1182   -1.5003   -1.3669 C   0  0  0  0  0  0  0  0  0  0  0  0
   -4.5812   -2.4248   -0.5045 C   0  0  0  0  0  0  0  0  0  0  0  0
   -2.9712    1.5777   -0.8819 C   0  0  0  0  0  0  0  0  0  0  0  0
   -4.0381    2.4581   -1.1881 C   0  0  0  0  0  0  0  0  0  0  0  0
   -5.2829    1.9918   -1.6919 C   0  0  0  0  0  0  0  0  0  0  0  0
   -5.5076    0.6995   -1.9125 N   0  0  0  0  0  0  0  0  0  0  0  0
   -1.6755    2.1887   -0.7194 C   0  0  0  0  0  0  0  0  0  0  0  0
   -1.6779    3.6303   -0.6259 C   0  0  0  0  0  0  0  0  0  0  0  0
   -2.7644    4.3980   -0.6325 N   0  0  0  0  0  0  0  0  0  0  0  0
   -3.9203    3.8576   -0.9869 C   0  0  0  0  0  0  0  0  0  0  0  0
   -5.0273    4.7112   -1.1777 C   0  0  0  0  0  0  0  0  0  0  0  0
   -6.2407    4.2478   -1.6678 C   0  0  0  0  0  0  0  0  0  0  0  0
   -6.3343    2.8935   -1.9598 C   0  0  0  0  0  0  0  0  0  0  0  0
   -0.3759    1.5998   -0.8478 C   0  0  0  0  0  0  0  0  0  0  0  0
    0.7325    2.4505   -1.0118 C   0  0  0  0  0  0  0  0  0  0  0  0
    0.7035    3.8440   -1.0144 C   0  0  0  0  0  0  0  0  0  0  0  0
   -0.5038    4.4156   -0.7025 C   0  0  0  0  0  0  0  0  0  0  0  0
   -1.7487   -0.5478    0.7846 O   0  0  0  0  0  0  0  0  0  0  0  0
   -0.3912   -0.6689    0.3047 B   0  0  0  0  0  0  0  0  0  0  0  0
   -0.0518   -2.1183   -0.1031 N   0  0  0  0  0  0  0  0  0  0  0  0
   -0.1048   -3.8418   -1.8901 C   0  0  0  0  0  0  0  0  0  0  0  0
   -0.8656   -2.7732   -1.1049 C   0  0  0  0  0  0  0  0  0  0  0  0
   -0.1379    0.2433   -0.9310 N   0  0  0  0  0  0  0  0  0  0  0  0
    0.6614    0.2966   -3.2657 C   0  0  0  0  0  0  0  0  0  0  0  0
    0.9260   -0.1692   -1.8369 C   0  0  0  0  0  0  0  0  0  0  0  0
   -7.3934    5.2170   -1.8609 C   0  0  0  0  0  0  0  0  0  0  0  0
   -8.6489    4.5292   -2.4008 C   0  0  0  0  0  0  0  0  0  0  0  0
   -7.7294    5.8486   -0.5023 C   0  0  0  0  0  0  0  0  0  0  0  0
   -6.9672    6.3074   -2.8536 C   0  0  0  0  0  0  0  0  0  0  0  0
    1.8883    4.6705   -1.4837 C   0  0  0  0  0  0  0  0  0  0  0  0
    1.6300    4.9501   -2.9753 C   0  0  0  0  0  0  0  0  0  0  0  0
    1.9879    6.0093   -0.7456 C   0  0  0  0  0  0  0  0  0  0  0  0
    3.2174    3.9218   -1.3470 C   0  0  0  0  0  0  0  0  0  0  0  0
   -5.2000   -3.8059   -0.3752 C   0  0  0  0  0  0  0  0  0  0  0  0
   -5.2211   -4.4660   -1.7612 C   0  0  0  0  0  0  0  0  0  0  0  0
   -4.4194   -4.7135    0.5780 C   0  0  0  0  0  0  0  0  0  0  0  0
   -6.6324   -3.6579    0.1548 C   0  0  0  0  0  0  0  0  0  0  0  0
   -0.3569   -6.1292    2.6871 C   0  0  0  0  0  0  0  0  0  0  0  0
   -1.0516   -6.9342    1.5798 C   0  0  0  0  0  0  0  0  0  0  0  0
    0.4611   -7.0902    3.5527 C   0  0  0  0  0  0  0  0  0  0  0  0
   -1.4040   -5.4470    3.5776 C   0  0  0  0  0  0  0  0  0  0  0  0
    8.4053   -3.3106   -0.3094 C   0  0  0  0  0  0  0  0  0  0  0  0
    9.2888   -2.1569   -0.7889 C   0  0  0  0  0  0  0  0  0  0  0  0
    9.0403   -3.9233    0.9471 C   0  0  0  0  0  0  0  0  0  0  0  0
    8.3310   -4.3630   -1.4244 C   0  0  0  0  0  0  0  0  0  0  0  0
    2.6841    3.6408    2.9336 C   0  0  0  0  0  0  0  0  0  0  0  0
    2.8188    3.2317    4.4098 C   0  0  0  0  0  0  0  0  0  0  0  0
    2.7765    4.1141    5.0434 H   0  0  0  0  0  0  0  0  0  0  0  0
    3.7671    2.7272    4.5812 H   0  0  0  0  0  0  0  0  0  0  0  0
    2.0157    2.5579    4.6989 H   0  0  0  0  0  0  0  0  0  0  0  0
    3.8466    4.5717    2.5780 C   0  0  0  0  0  0  0  0  0  0  0  0
    4.8022    4.1211    2.8321 H   0  0  0  0  0  0  0  0  0  0  0  0
    3.7589    5.4953    3.1451 H   0  0  0  0  0  0  0  0  0  0  0  0
    3.8456    4.8205    1.5203 H   0  0  0  0  0  0  0  0  0  0  0  0
    1.3557    4.3856    2.7382 C   0  0  0  0  0  0  0  0  0  0  0  0
    0.5473    3.9028    3.2802 H   0  0  0  0  0  0  0  0  0  0  0  0
    1.0831    4.4285    1.6863 H   0  0  0  0  0  0  0  0  0  0  0  0
    1.4421    5.4007    3.1177 H   0  0  0  0  0  0  0  0  0  0  0  0
    9.4239   -1.4127   -0.0078 H   0  0  0  0  0  0  0  0  0  0  0  0
    8.8683   -1.6801   -1.6712 H   0  0  0  0  0  0  0  0  0  0  0  0
   10.2703   -2.5426   -1.0529 H   0  0  0  0  0  0  0  0  0  0  0  0
    9.0646   -3.1938    1.7537 H   0  0  0  0  0  0  0  0  0  0  0  0
   10.0604   -4.2304    0.7314 H   0  0  0  0  0  0  0  0  0  0  0  0
    8.4892   -4.7946    1.2895 H   0  0  0  0  0  0  0  0  0  0  0  0
    3.2867    3.1002   -2.0564 H   0  0  0  0  0  0  0  0  0  0  0  0
    3.3444    3.5279   -0.3418 H   0  0  0  0  0  0  0  0  0  0  0  0
    4.0402    4.6008   -1.5570 H   0  0  0  0  0  0  0  0  0  0  0  0
    1.1223    6.6360   -0.9380 H   0  0  0  0  0  0  0  0  0  0  0  0
    2.8661    6.5496   -1.0909 H   0  0  0  0  0  0  0  0  0  0  0  0
    2.0783    5.8610    0.3261 H   0  0  0  0  0  0  0  0  0  0  0  0
    0.7040    5.5042   -3.1092 H   0  0  0  0  0  0  0  0  0  0  0  0
    1.5569    4.0204   -3.5364 H   0  0  0  0  0  0  0  0  0  0  0  0
    2.4472    5.5363   -3.3877 H   0  0  0  0  0  0  0  0  0  0  0  0
   -6.7016    5.8652   -3.8115 H   0  0  0  0  0  0  0  0  0  0  0  0
   -6.1138    6.8708   -2.4871 H   0  0  0  0  0  0  0  0  0  0  0  0
   -7.7884    7.0013   -3.0123 H   0  0  0  0  0  0  0  0  0  0  0  0
   -8.0101    5.0794    0.2142 H   0  0  0  0  0  0  0  0  0  0  0  0
   -8.5645    6.5356   -0.6120 H   0  0  0  0  0  0  0  0  0  0  0  0
   -6.8865    6.4021   -0.0984 H   0  0  0  0  0  0  0  0  0  0  0  0
   -8.9988    3.7579   -1.7187 H   0  0  0  0  0  0  0  0  0  0  0  0
   -8.4680    4.0896   -3.3787 H   0  0  0  0  0  0  0  0  0  0  0  0
   -9.4426    5.2643   -2.5079 H   0  0  0  0  0  0  0  0  0  0  0  0
   -3.3988   -4.8566    0.2277 H   0  0  0  0  0  0  0  0  0  0  0  0
   -4.8955   -5.6903    0.6176 H   0  0  0  0  0  0  0  0  0  0  0  0
   -4.4060   -4.3106    1.5880 H   0  0  0  0  0  0  0  0  0  0  0  0
   -7.2420   -3.0635   -0.5194 H   0  0  0  0  0  0  0  0  0  0  0  0
   -6.6277   -3.1737    1.1289 H   0  0  0  0  0  0  0  0  0  0  0  0
   -7.0928   -4.6372    0.2589 H   0  0  0  0  0  0  0  0  0  0  0  0
   -4.2122   -4.5429   -2.1624 H   0  0  0  0  0  0  0  0  0  0  0  0
   -5.8248   -3.8977   -2.4620 H   0  0  0  0  0  0  0  0  0  0  0  0
   -5.6391   -5.4668   -1.6883 H   0  0  0  0  0  0  0  0  0  0  0  0
    7.8639   -3.9421   -2.3124 H   0  0  0  0  0  0  0  0  0  0  0  0
    7.7602   -5.2344   -1.1164 H   0  0  0  0  0  0  0  0  0  0  0  0
    9.3331   -4.6913   -1.6876 H   0  0  0  0  0  0  0  0  0  0  0  0
    7.2931   -0.7363   -0.2502 H   0  0  0  0  0  0  0  0  0  0  0  0
    6.3160   -4.8339    0.5837 H   0  0  0  0  0  0  0  0  0  0  0  0
    4.7543    2.4225    1.4496 H   0  0  0  0  0  0  0  0  0  0  0  0
    2.4561   -5.9341    2.4323 H   0  0  0  0  0  0  0  0  0  0  0  0
    0.6186    1.9021    2.4540 H   0  0  0  0  0  0  0  0  0  0  0  0
   -1.1304   -4.0246    1.1803 H   0  0  0  0  0  0  0  0  0  0  0  0
   -3.0703   -2.6207    1.0308 H   0  0  0  0  0  0  0  0  0  0  0  0
    1.6951    1.9856   -1.1201 H   0  0  0  0  0  0  0  0  0  0  0  0
   -6.0081   -1.6949   -1.9420 H   0  0  0  0  0  0  0  0  0  0  0  0
   -0.6530    5.4796   -0.6332 H   0  0  0  0  0  0  0  0  0  0  0  0
   -7.2284    2.4594   -2.3748 H   0  0  0  0  0  0  0  0  0  0  0  0
   -4.8691    5.7515   -0.9422 H   0  0  0  0  0  0  0  0  0  0  0  0
    1.1510   -7.6748    2.9498 H   0  0  0  0  0  0  0  0  0  0  0  0
   -0.2083   -7.7829    4.0567 H   0  0  0  0  0  0  0  0  0  0  0  0
    1.0215   -6.5484    4.3107 H   0  0  0  0  0  0  0  0  0  0  0  0
   -2.0665   -4.8041    3.0051 H   0  0  0  0  0  0  0  0  0  0  0  0
   -0.9159   -4.8440    4.3399 H   0  0  0  0  0  0  0  0  0  0  0  0
   -2.0132   -6.1992    4.0724 H   0  0  0  0  0  0  0  0  0  0  0  0
   -0.3135   -7.4163    0.9422 H   0  0  0  0  0  0  0  0  0  0  0  0
   -1.6790   -6.3001    0.9591 H   0  0  0  0  0  0  0  0  0  0  0  0
   -1.6793   -7.7039    2.0212 H   0  0  0  0  0  0  0  0  0  0  0  0
    0.9552   -1.2560   -1.8104 H   0  0  0  0  0  0  0  0  0  0  0  0
    1.9206    0.1626   -1.5086 H   0  0  0  0  0  0  0  0  0  0  0  0
   -0.3119   -0.0563   -3.5987 H   0  0  0  0  0  0  0  0  0  0  0  0
    1.4234   -0.1063   -3.9278 H   0  0  0  0  0  0  0  0  0  0  0  0
    0.6748    1.3814   -3.3401 H   0  0  0  0  0  0  0  0  0  0  0  0
   -1.2140   -1.9894   -1.7818 H   0  0  0  0  0  0  0  0  0  0  0  0
   -1.7638   -3.2357   -0.6729 H   0  0  0  0  0  0  0  0  0  0  0  0
    0.7883   -3.4245   -2.3501 H   0  0  0  0  0  0  0  0  0  0  0  0
   -0.7451   -4.2333   -2.6760 H   0  0  0  0  0  0  0  0  0  0  0  0
    0.1945   -4.6641   -1.2445 H   0  0  0  0  0  0  0  0  0  0  0  0
  1  2  2  0  0  0  0
  1125  1  0  0  0  0
  2  3  1  0  0  0  0
  3  4  2  0  0  0  0
  3  7  1  0  0  0  0
  4  5  1  0  0  0  0
  5  6  2  0  0  0  0
  5123  1  0  0  0  0
  6  1  1  0  0  0  0
  6 72  1  0  0  0  0
  7  8  1  0  0  0  0
  7 11  2  0  0  0  0
  8  9  1  0  0  0  0
  9 10  2  0  0  0  0
 10  4  1  0  0  0  0
 11 12  1  0  0  0  0
 11 18  1  0  0  0  0
 12 13  2  0  0  0  0
 13 14  1  0  0  0  0
 14  8  1  0  0  0  0
 14 15  2  0  0  0  0
 15 16  1  0  0  0  0
 15122  1  0  0  0  0
 16 68  1  0  0  0  0
 16 17  2  0  0  0  0
 17  9  1  0  0  0  0
 17121  1  0  0  0  0
 18 46  1  0  0  0  0
 18 19  2  0  0  0  0
 19 20  1  0  0  0  0
 19126  1  0  0  0  0
 20 64  1  0  0  0  0
 20 21  2  0  0  0  0
 21 12  1  0  0  0  0
 21124  1  0  0  0  0
 22  2  1  0  0  0  0
 23 24  2  0  0  0  0
 23127  1  0  0  0  0
 24 25  1  0  0  0  0
 24 44  1  0  0  0  0
 25 26  2  0  0  0  0
 25 29  1  0  0  0  0
 26 27  1  0  0  0  0
 27 28  2  0  0  0  0
 27129  1  0  0  0  0
 28 60  1  0  0  0  0
 28 23  1  0  0  0  0
 29 33  2  0  0  0  0
 30 29  1  0  0  0  0
 30 31  1  0  0  0  0
 31 32  2  0  0  0  0
 32 26  1  0  0  0  0
 33 34  1  0  0  0  0
 33 40  1  0  0  0  0
 34 35  2  0  0  0  0
 35 36  1  0  0  0  0
 36 30  1  0  0  0  0
 36 37  2  0  0  0  0
 37 38  1  0  0  0  0
 37132  1  0  0  0  0
 38 52  1  0  0  0  0
 38 39  2  0  0  0  0
 39 31  1  0  0  0  0
 39131  1  0  0  0  0
 40 49  1  0  0  0  0
 40 41  2  0  0  0  0
 41 42  1  0  0  0  0
 41128  1  0  0  0  0
 42 56  1  0  0  0  0
 42 43  2  0  0  0  0
 43 34  1  0  0  0  0
 43130  1  0  0  0  0
 45 46  1  0  0  0  0
 45 49  1  0  0  0  0
 45 22  1  0  0  0  0
 45 44  1  0  0  0  0
 46 48  1  0  0  0  0
 47 48  1  0  0  0  0
 47149  1  0  0  0  0
 47150  1  0  0  0  0
 47151  1  0  0  0  0
 48147  1  0  0  0  0
 48148  1  0  0  0  0
 49 51  1  0  0  0  0
 50 51  1  0  0  0  0
 50144  1  0  0  0  0
 50145  1  0  0  0  0
 50146  1  0  0  0  0
 51142  1  0  0  0  0
 51143  1  0  0  0  0
 52 53  1  0  0  0  0
 52 54  1  0  0  0  0
 52 55  1  0  0  0  0
 53106  1  0  0  0  0
 53107  1  0  0  0  0
 53108  1  0  0  0  0
 54103  1  0  0  0  0
 54104  1  0  0  0  0
 54105  1  0  0  0  0
 55100  1  0  0  0  0
 55101  1  0  0  0  0
 55102  1  0  0  0  0
 56 57  1  0  0  0  0
 56 58  1  0  0  0  0
 56 59  1  0  0  0  0
 57 97  1  0  0  0  0
 57 98  1  0  0  0  0
 57 99  1  0  0  0  0
 58 94  1  0  0  0  0
 58 95  1  0  0  0  0
 58 96  1  0  0  0  0
 59 91  1  0  0  0  0
 59 92  1  0  0  0  0
 59 93  1  0  0  0  0
 60 61  1  0  0  0  0
 60 62  1  0  0  0  0
 60 63  1  0  0  0  0
 61115  1  0  0  0  0
 61116  1  0  0  0  0
 61117  1  0  0  0  0
 62109  1  0  0  0  0
 62110  1  0  0  0  0
 62111  1  0  0  0  0
 63112  1  0  0  0  0
 63113  1  0  0  0  0
 63114  1  0  0  0  0
 64 65  1  0  0  0  0
 64 66  1  0  0  0  0
 64 67  1  0  0  0  0
 65139  1  0  0  0  0
 65140  1  0  0  0  0
 65141  1  0  0  0  0
 66133  1  0  0  0  0
 66134  1  0  0  0  0
 66135  1  0  0  0  0
 67136  1  0  0  0  0
 67137  1  0  0  0  0
 67138  1  0  0  0  0
 68 69  1  0  0  0  0
 68 70  1  0  0  0  0
 68 71  1  0  0  0  0
 69 85  1  0  0  0  0
 69 86  1  0  0  0  0
 69 87  1  0  0  0  0
 70 88  1  0  0  0  0
 70 89  1  0  0  0  0
 70 90  1  0  0  0  0
 71118  1  0  0  0  0
 71119  1  0  0  0  0
 71120  1  0  0  0  0
 72 73  1  0  0  0  0
 72 77  1  0  0  0  0
 72 81  1  0  0  0  0
 73 74  1  0  0  0  0
 73 75  1  0  0  0  0
 73 76  1  0  0  0  0
 77 78  1  0  0  0  0
 77 79  1  0  0  0  0
 77 80  1  0  0  0  0
 81 82  1  0  0  0  0
 81 83  1  0  0  0  0
 81 84  1  0  0  0  0
M  CHG  1   1   1
M  END
