
 OpenBabel11072415563D

302324  0  0  0  0  0  0  0  0999 V2000
    1.5114    1.5109    2.1376 C   0  0  0  0  0  0  0  0  0  0  0  0
    1.4967    0.2498    1.5561 C   0  0  0  0  0  0  0  0  0  0  0  0
    2.6940   -0.3379    1.0771 C   0  0  0  0  0  0  0  0  0  0  0  0
    3.8273    0.5420    1.0178 C   0  0  0  0  0  0  0  0  0  0  0  0
    3.7781    1.8427    1.5724 C   0  0  0  0  0  0  0  0  0  0  0  0
    2.6568    2.3097    2.2127 C   0  0  0  0  0  0  0  0  0  0  0  0
    2.9124   -1.7374    0.8383 C   0  0  0  0  0  0  0  0  0  0  0  0
    4.2564   -2.0894    0.5805 C   0  5  0  0  0  0  0  0  0  0  0  0
    5.2427   -1.1017    0.3060 C   0  0  0  0  0  0  0  0  0  0  0  0
    5.0138    0.1895    0.5175 N   0  0  0  0  0  0  0  0  0  0  0  0
    2.0072   -2.8429    1.0360 C   0  0  0  0  0  0  0  0  0  0  0  0
    2.6375   -4.0775    1.4357 C   0  0  0  0  0  0  0  0  0  0  0  0
    3.9181   -4.3642    1.2167 N   0  0  0  0  0  0  0  0  0  0  0  0
    4.6987   -3.4363    0.6696 C   0  0  0  0  0  0  0  0  0  0  0  0
    6.0111   -3.7786    0.2971 C   0  0  0  0  0  0  0  0  0  0  0  0
    6.9239   -2.8231   -0.1357 C   0  0  0  0  0  0  0  0  0  0  0  0
    6.5339   -1.4943   -0.1123 C   0  0  0  0  0  0  0  0  0  0  0  0
    0.6019   -2.9588    0.8297 C   0  0  0  0  0  0  0  0  0  0  0  0
   -0.0842   -4.0245    1.4160 C   0  0  0  0  0  0  0  0  0  0  0  0
    0.5268   -5.0682    2.1114 C   0  0  0  0  0  0  0  0  0  0  0  0
    1.8964   -5.1227    2.0307 C   0  0  0  0  0  0  0  0  0  0  0  0
    0.3335   -0.3906    1.5546 O   0  0  0  0  0  0  0  0  0  0  0  0
   -3.5140   -1.9891    0.2437 C   0  0  0  0  0  0  0  0  0  0  0  0
   -2.8623   -0.7660    0.0694 C   0  0  0  0  0  0  0  0  0  0  0  0
   -3.4072    0.2225   -0.7769 C   0  0  0  0  0  0  0  0  0  0  0  0
   -4.6419   -0.1331   -1.4199 C   0  0  0  0  0  0  0  0  0  0  0  0
   -5.1278   -1.4595   -1.3894 C   0  0  0  0  0  0  0  0  0  0  0  0
   -4.6074   -2.3914   -0.5263 C   0  0  0  0  0  0  0  0  0  0  0  0
   -2.9724    1.5958   -0.8609 C   0  0  0  0  0  0  0  0  0  0  0  0
   -4.0216    2.4866   -1.1957 C   0  5  0  0  0  0  0  0  0  0  0  0
   -5.2534    2.0309   -1.7404 C   0  0  0  0  0  0  0  0  0  0  0  0
   -5.4842    0.7403   -1.9691 N   0  0  0  0  0  0  0  0  0  0  0  0
   -1.6732    2.1932   -0.6744 C   0  0  0  0  0  0  0  0  0  0  0  0
   -1.6616    3.6327   -0.5851 C   0  0  0  0  0  0  0  0  0  0  0  0
   -2.7422    4.4150   -0.6012 N   0  0  0  0  0  0  0  0  0  0  0  0
   -3.8951    3.8846   -0.9859 C   0  0  0  0  0  0  0  0  0  0  0  0
   -4.9859    4.7474   -1.2109 C   0  0  0  0  0  0  0  0  0  0  0  0
   -6.1826    4.2943   -1.7470 C   0  0  0  0  0  0  0  0  0  0  0  0
   -6.2846    2.9438   -2.0426 C   0  0  0  0  0  0  0  0  0  0  0  0
   -0.3800    1.5852   -0.7778 C   0  0  0  0  0  0  0  0  0  0  0  0
    0.7433    2.4160   -0.9207 C   0  0  0  0  0  0  0  0  0  0  0  0
    0.7282    3.8094   -0.9310 C   0  0  0  0  0  0  0  0  0  0  0  0
   -0.4768    4.3992   -0.6510 C   0  0  0  0  0  0  0  0  0  0  0  0
   -1.7961   -0.5326    0.8312 O   0  0  0  0  0  0  0  0  0  0  0  0
   -0.4345   -0.6921    0.3596 B   0  5  2  0  0  0  0  0  0  0  0  0
   -0.1015   -2.1409   -0.0414 N   0  0  0  0  0  0  0  0  0  0  0  0
   -0.0927   -3.8461   -1.8429 C   0  0  0  0  0  0  0  0  0  0  0  0
   -0.8982   -2.8219   -1.0400 C   0  0  0  0  0  0  0  0  0  0  0  0
   -0.1683    0.2226   -0.8722 N   0  0  0  0  0  0  0  0  0  0  0  0
    0.6119    0.2762   -3.2088 C   0  0  0  0  0  0  0  0  0  0  0  0
    0.8854   -0.1977   -1.7836 C   0  0  0  0  0  0  0  0  0  0  0  0
   -7.3155    5.2798   -1.9861 C   0  0  0  0  0  0  0  0  0  0  0  0
   -8.5592    4.6109   -2.5762 C   0  0  0  0  0  0  0  0  0  0  0  0
   -7.7010    5.9189   -0.6447 C   0  0  0  0  0  0  0  0  0  0  0  0
   -6.8389    6.3637   -2.9623 C   0  0  0  0  0  0  0  0  0  0  0  0
    1.9266    4.6240   -1.3920 C   0  0  0  0  0  0  0  0  0  0  0  0
    1.6795    4.9243   -2.8811 C   0  0  0  0  0  0  0  0  0  0  0  0
    2.0452    5.9538   -0.6398 C   0  0  0  0  0  0  0  0  0  0  0  0
    3.2462    3.8587   -1.2600 C   0  0  0  0  0  0  0  0  0  0  0  0
   -5.2420   -3.7690   -0.4195 C   0  0  0  0  0  0  0  0  0  0  0  0
   -5.2832   -4.4068   -1.8152 C   0  0  0  0  0  0  0  0  0  0  0  0
   -4.4653   -4.7059    0.5079 C   0  0  0  0  0  0  0  0  0  0  0  0
   -6.6681   -3.6147    0.1252 C   0  0  0  0  0  0  0  0  0  0  0  0
   -0.2484   -6.1496    2.8439 C   0  0  0  0  0  0  0  0  0  0  0  0
   -0.0724   -7.4793    2.0981 C   0  0  0  0  0  0  0  0  0  0  0  0
    0.3101   -6.2746    4.2680 C   0  0  0  0  0  0  0  0  0  0  0  0
   -1.7429   -5.8354    2.9428 C   0  0  0  0  0  0  0  0  0  0  0  0
    8.3192   -3.2638   -0.5500 C   0  0  0  0  0  0  0  0  0  0  0  0
    9.1797   -2.0986   -1.0443 C   0  0  0  0  0  0  0  0  0  0  0  0
    9.0149   -3.9009    0.6608 C   0  0  0  0  0  0  0  0  0  0  0  0
    8.2027   -4.2912   -1.6843 C   0  0  0  0  0  0  0  0  0  0  0  0
    2.6271    3.5889    3.0294 C   0  0  0  0  0  0  0  0  0  0  0  0
    2.7311    3.1743    4.5060 C   0  0  0  0  0  0  0  0  0  0  0  0
    2.6805    4.0527    5.1461 H   0  0  0  0  0  0  0  0  0  0  0  0
    3.6731    2.6624    4.6914 H   0  0  0  0  0  0  0  0  0  0  0  0
    1.9197    2.5015    4.7731 H   0  0  0  0  0  0  0  0  0  0  0  0
    3.8015    4.5159    2.7022 C   0  0  0  0  0  0  0  0  0  0  0  0
    4.7489    4.0549    2.9691 H   0  0  0  0  0  0  0  0  0  0  0  0
    3.7097    5.4381    3.2726 H   0  0  0  0  0  0  0  0  0  0  0  0
    3.8207    4.7678    1.6455 H   0  0  0  0  0  0  0  0  0  0  0  0
    1.3083    4.3444    2.8109 C   0  0  0  0  0  0  0  0  0  0  0  0
    0.4872    3.8632    3.3348 H   0  0  0  0  0  0  0  0  0  0  0  0
    1.0549    4.3866    1.7546 H   0  0  0  0  0  0  0  0  0  0  0  0
    1.3916    5.3598    3.1927 H   0  0  0  0  0  0  0  0  0  0  0  0
    9.3459   -1.3709   -0.2538 H   0  0  0  0  0  0  0  0  0  0  0  0
    8.7149   -1.6027   -1.8932 H   0  0  0  0  0  0  0  0  0  0  0  0
   10.1499   -2.4748   -1.3624 H   0  0  0  0  0  0  0  0  0  0  0  0
    9.0805   -3.1842    1.4768 H   0  0  0  0  0  0  0  0  0  0  0  0
   10.0223   -4.2116    0.3922 H   0  0  0  0  0  0  0  0  0  0  0  0
    8.4719   -4.7722    1.0159 H   0  0  0  0  0  0  0  0  0  0  0  0
    3.3008    3.0372   -1.9705 H   0  0  0  0  0  0  0  0  0  0  0  0
    3.3671    3.4574   -0.2573 H   0  0  0  0  0  0  0  0  0  0  0  0
    4.0797    4.5263   -1.4686 H   0  0  0  0  0  0  0  0  0  0  0  0
    1.1841    6.5905   -0.8205 H   0  0  0  0  0  0  0  0  0  0  0  0
    2.9293    6.4891   -0.9804 H   0  0  0  0  0  0  0  0  0  0  0  0
    2.1350    5.7895    0.4295 H   0  0  0  0  0  0  0  0  0  0  0  0
    0.7605    5.4913   -3.0112 H   0  0  0  0  0  0  0  0  0  0  0  0
    1.5929    4.0000   -3.4491 H   0  0  0  0  0  0  0  0  0  0  0  0
    2.5063    5.5025   -3.2881 H   0  0  0  0  0  0  0  0  0  0  0  0
   -6.5430    5.9146   -3.9081 H   0  0  0  0  0  0  0  0  0  0  0  0
   -5.9890    6.9100   -2.5634 H   0  0  0  0  0  0  0  0  0  0  0  0
   -7.6415    7.0728   -3.1532 H   0  0  0  0  0  0  0  0  0  0  0  0
   -8.0175    5.1525    0.0597 H   0  0  0  0  0  0  0  0  0  0  0  0
   -8.5225    6.6177   -0.7862 H   0  0  0  0  0  0  0  0  0  0  0  0
   -6.8653    6.4586   -0.2084 H   0  0  0  0  0  0  0  0  0  0  0  0
   -8.9452    3.8451   -1.9078 H   0  0  0  0  0  0  0  0  0  0  0  0
   -8.3418    4.1638   -3.5432 H   0  0  0  0  0  0  0  0  0  0  0  0
   -9.3382    5.3572   -2.7184 H   0  0  0  0  0  0  0  0  0  0  0  0
   -3.4493   -4.8487    0.1449 H   0  0  0  0  0  0  0  0  0  0  0  0
   -4.9521   -5.6790    0.5326 H   0  0  0  0  0  0  0  0  0  0  0  0
   -4.4361   -4.3217    1.5245 H   0  0  0  0  0  0  0  0  0  0  0  0
   -7.2684   -2.9860   -0.5262 H   0  0  0  0  0  0  0  0  0  0  0  0
   -6.6460   -3.1589    1.1127 H   0  0  0  0  0  0  0  0  0  0  0  0
   -7.1479   -4.5880    0.2037 H   0  0  0  0  0  0  0  0  0  0  0  0
   -4.2777   -4.4841   -2.2243 H   0  0  0  0  0  0  0  0  0  0  0  0
   -5.8856   -3.8192   -2.5011 H   0  0  0  0  0  0  0  0  0  0  0  0
   -5.7102   -5.4059   -1.7570 H   0  0  0  0  0  0  0  0  0  0  0  0
    7.6964   -3.8505   -2.5407 H   0  0  0  0  0  0  0  0  0  0  0  0
    7.6427   -5.1676   -1.3708 H   0  0  0  0  0  0  0  0  0  0  0  0
    9.1929   -4.6143   -1.9981 H   0  0  0  0  0  0  0  0  0  0  0  0
    7.2078   -0.6939   -0.3657 H   0  0  0  0  0  0  0  0  0  0  0  0
    6.2785   -4.8190    0.3868 H   0  0  0  0  0  0  0  0  0  0  0  0
    4.7015    2.3957    1.5291 H   0  0  0  0  0  0  0  0  0  0  0  0
    2.4698   -5.9660    2.3788 H   0  0  0  0  0  0  0  0  0  0  0  0
    0.5706    1.8457    2.5428 H   0  0  0  0  0  0  0  0  0  0  0  0
   -1.1568   -4.0077    1.3248 H   0  0  0  0  0  0  0  0  0  0  0  0
   -3.1139   -2.6180    1.0220 H   0  0  0  0  0  0  0  0  0  0  0  0
    1.6999    1.9362   -1.0135 H   0  0  0  0  0  0  0  0  0  0  0  0
   -6.0104   -1.6464   -1.9788 H   0  0  0  0  0  0  0  0  0  0  0  0
   -0.6152    5.4663   -0.6052 H   0  0  0  0  0  0  0  0  0  0  0  0
   -7.1699    2.5174   -2.4825 H   0  0  0  0  0  0  0  0  0  0  0  0
   -4.8255    5.7863   -0.9718 H   0  0  0  0  0  0  0  0  0  0  0  0
    1.3596   -6.5536    4.2588 H   0  0  0  0  0  0  0  0  0  0  0  0
   -0.2398   -7.0337    4.8203 H   0  0  0  0  0  0  0  0  0  0  0  0
    0.2130   -5.3269    4.7933 H   0  0  0  0  0  0  0  0  0  0  0  0
   -2.2171   -5.8659    1.9654 H   0  0  0  0  0  0  0  0  0  0  0  0
   -1.9049   -4.8576    3.3908 H   0  0  0  0  0  0  0  0  0  0  0  0
   -2.2302   -6.5796    3.5695 H   0  0  0  0  0  0  0  0  0  0  0  0
    0.9749   -7.7644    2.0505 H   0  0  0  0  0  0  0  0  0  0  0  0
   -0.4501   -7.3963    1.0808 H   0  0  0  0  0  0  0  0  0  0  0  0
   -0.6216   -8.2689    2.6064 H   0  0  0  0  0  0  0  0  0  0  0  0
    0.9018   -1.2844   -1.7599 H   0  0  0  0  0  0  0  0  0  0  0  0
    1.8878    0.1228   -1.4675 H   0  0  0  0  0  0  0  0  0  0  0  0
   -0.3726   -0.0582   -3.5285 H   0  0  0  0  0  0  0  0  0  0  0  0
    1.3592   -0.1353   -3.8833 H   0  0  0  0  0  0  0  0  0  0  0  0
    0.6413    1.3615   -3.2750 H   0  0  0  0  0  0  0  0  0  0  0  0
   -1.2894   -2.0496   -1.7064 H   0  0  0  0  0  0  0  0  0  0  0  0
   -1.7638   -3.3384   -0.6060 H   0  0  0  0  0  0  0  0  0  0  0  0
    0.7695   -3.3824   -2.3172 H   0  0  0  0  0  0  0  0  0  0  0  0
   -0.7242   -4.2742   -2.6178 H   0  0  0  0  0  0  0  0  0  0  0  0
    0.2628   -4.6476   -1.1991 H   0  0  0  0  0  0  0  0  0  0  0  0
    4.9554   -0.7781   11.4904 C   0  0  0  0  0  0  0  0  0  0  0  0
    4.4416   -1.9123   10.8755 C   0  0  0  0  0  0  0  0  0  0  0  0
    5.3078   -2.9005   10.3449 C   0  0  0  0  0  0  0  0  0  0  0  0
    6.6928   -2.5278   10.2757 C   0  0  0  0  0  0  0  0  0  0  0  0
    7.1627   -1.3313   10.8668 C   0  0  0  0  0  0  0  0  0  0  0  0
    6.3223   -0.4897   11.5529 C   0  0  0  0  0  0  0  0  0  0  0  0
    4.9607   -4.2653   10.0616 C   0  0  0  0  0  0  0  0  0  0  0  0
    6.0575   -5.1015    9.7541 C   0  5  0  0  0  0  0  0  0  0  0  0
    7.3454   -4.5646    9.4772 C   0  0  0  0  0  0  0  0  0  0  0  0
    7.6402   -3.2945    9.7306 N   0  0  0  0  0  0  0  0  0  0  0  0
    3.7004   -4.9394   10.2562 C   0  0  0  0  0  0  0  0  0  0  0  0
    3.8077   -6.3356   10.6030 C   0  0  0  0  0  0  0  0  0  0  0  0
    4.8722   -7.0885   10.3379 N   0  0  0  0  0  0  0  0  0  0  0  0
    5.9427   -6.5168    9.7931 C   0  0  0  0  0  0  0  0  0  0  0  0
    7.0122   -7.3276    9.3722 C   0  0  0  0  0  0  0  0  0  0  0  0
    8.2171   -6.7860    8.9385 C   0  0  0  0  0  0  0  0  0  0  0  0
    8.3750   -5.4118    9.0098 C   0  0  0  0  0  0  0  0  0  0  0  0
    2.3573   -4.4932   10.0890 C   0  0  0  0  0  0  0  0  0  0  0  0
    1.3209   -5.2299   10.6664 C   0  0  0  0  0  0  0  0  0  0  0  0
    1.4898   -6.4537   11.3144 C   0  0  0  0  0  0  0  0  0  0  0  0
    2.7288   -7.0324   11.1912 C   0  0  0  0  0  0  0  0  0  0  0  0
    3.1210   -2.0506   10.8914 O   0  0  0  0  0  0  0  0  0  0  0  0
   -1.0670   -1.9815    9.6534 C   0  0  0  0  0  0  0  0  0  0  0  0
    0.0059   -1.1016    9.4931 C   0  0  0  0  0  0  0  0  0  0  0  0
   -0.1261    0.0513    8.6908 C   0  0  0  0  0  0  0  0  0  0  0  0
   -1.4126    0.2266    8.0756 C   0  0  0  0  0  0  0  0  0  0  0  0
   -2.3754   -0.8074    8.0845 C   0  0  0  0  0  0  0  0  0  0  0  0
   -2.2437   -1.8993    8.9059 C   0  0  0  0  0  0  0  0  0  0  0  0
    0.8070    1.1504    8.6312 C   0  0  0  0  0  0  0  0  0  0  0  0
    0.1812    2.3902    8.3525 C   0  5  0  0  0  0  0  0  0  0  0  0
   -1.1399    2.4685    7.8327 C   0  0  0  0  0  0  0  0  0  0  0  0
   -1.8583    1.3780    7.5760 N   0  0  0  0  0  0  0  0  0  0  0  0
    2.2392    1.1895    8.7949 C   0  0  0  0  0  0  0  0  0  0  0  0
    2.8112    2.5073    8.9230 C   0  0  0  0  0  0  0  0  0  0  0  0
    2.1197    3.6477    8.9607 N   0  0  0  0  0  0  0  0  0  0  0  0
    0.8449    3.6208    8.5964 C   0  0  0  0  0  0  0  0  0  0  0  0
    0.1718    4.8469    8.4279 C   0  0  0  0  0  0  0  0  0  0  0  0
   -1.1159    4.9137    7.9157 C   0  0  0  0  0  0  0  0  0  0  0  0
   -1.7400    3.7205    7.5866 C   0  0  0  0  0  0  0  0  0  0  0  0
    3.1923    0.1316    8.6362 C   0  0  0  0  0  0  0  0  0  0  0  0
    4.5476    0.4660    8.4824 C   0  0  0  0  0  0  0  0  0  0  0  0
    5.0753    1.7554    8.5105 C   0  0  0  0  0  0  0  0  0  0  0  0
    4.1995    2.7559    8.8425 C   0  0  0  0  0  0  0  0  0  0  0  0
    1.0918   -1.3284   10.2286 O   0  0  0  0  0  0  0  0  0  0  0  0
    2.2760   -1.9863    9.7122 B   0  5  2  0  0  0  0  0  0  0  0  0
    2.0126   -3.4350    9.2620 N   0  0  0  0  0  0  0  0  0  0  0  0
    1.3269   -4.9425    7.4153 C   0  0  0  0  0  0  0  0  0  0  0  0
    0.9969   -3.7162    8.2696 C   0  0  0  0  0  0  0  0  0  0  0  0
    2.8559   -1.2019    8.4984 N   0  0  0  0  0  0  0  0  0  0  0  0
    3.5556   -1.3694    6.1418 C   0  0  0  0  0  0  0  0  0  0  0  0
    3.6475   -1.9644    7.5447 C   0  0  0  0  0  0  0  0  0  0  0  0
   -1.7803    6.2697    7.7377 C   0  0  0  0  0  0  0  0  0  0  0  0
   -3.1961    6.1580    7.1672 C   0  0  0  0  0  0  0  0  0  0  0  0
   -1.8641    6.9585    9.1070 C   0  0  0  0  0  0  0  0  0  0  0  0
   -0.9365    7.1188    6.7776 C   0  0  0  0  0  0  0  0  0  0  0  0
    6.4881    2.0575    8.0362 C   0  0  0  0  0  0  0  0  0  0  0  0
    6.3519    2.4847    6.5639 C   0  0  0  0  0  0  0  0  0  0  0  0
    7.1273    3.2084    8.8205 C   0  0  0  0  0  0  0  0  0  0  0  0
    7.4084    0.8358    8.1076 C   0  0  0  0  0  0  0  0  0  0  0  0
   -3.3621   -2.9256    8.9941 C   0  0  0  0  0  0  0  0  0  0  0  0
   -3.6719   -3.4457    7.5834 C   0  0  0  0  0  0  0  0  0  0  0  0
   -2.9952   -4.1239    9.8719 C   0  0  0  0  0  0  0  0  0  0  0  0
   -4.6065   -2.2502    9.5853 C   0  0  0  0  0  0  0  0  0  0  0  0
    0.3677   -7.1757   12.0401 C   0  0  0  0  0  0  0  0  0  0  0  0
    0.0001   -8.4411   11.2533 C   0  0  0  0  0  0  0  0  0  0  0  0
    0.8578   -7.5599   13.4428 C   0  0  0  0  0  0  0  0  0  0  0  0
   -0.8851   -6.3101   12.1923 C   0  0  0  0  0  0  0  0  0  0  0  0
    9.3240   -7.7180    8.4706 C   0  0  0  0  0  0  0  0  0  0  0  0
   10.5613   -6.9607    7.9827 C   0  0  0  0  0  0  0  0  0  0  0  0
    9.7377   -8.6192    9.6422 C   0  0  0  0  0  0  0  0  0  0  0  0
    8.7979   -8.5772    7.3127 C   0  0  0  0  0  0  0  0  0  0  0  0
    6.8063    0.6698   12.4047 C   0  0  0  0  0  0  0  0  0  0  0  0
    6.7660    0.1934   13.8657 C   0  0  0  0  0  0  0  0  0  0  0  0
    7.0719    0.9984   14.5307 H   0  0  0  0  0  0  0  0  0  0  0  0
    7.4379   -0.6504   14.0087 H   0  0  0  0  0  0  0  0  0  0  0  0
    5.7616   -0.1212   14.1385 H   0  0  0  0  0  0  0  0  0  0  0  0
    8.2430    1.0798   12.0678 C   0  0  0  0  0  0  0  0  0  0  0  0
    8.9410    0.2778   12.2935 H   0  0  0  0  0  0  0  0  0  0  0  0
    8.5267    1.9437   12.6657 H   0  0  0  0  0  0  0  0  0  0  0  0
    8.3406    1.3432   11.0183 H   0  0  0  0  0  0  0  0  0  0  0  0
    5.8815    1.8854   12.2465 C   0  0  0  0  0  0  0  0  0  0  0  0
    4.9470    1.7416   12.7815 H   0  0  0  0  0  0  0  0  0  0  0  0
    5.6465    2.0614   11.1999 H   0  0  0  0  0  0  0  0  0  0  0  0
    6.3596    2.7741   12.6532 H   0  0  0  0  0  0  0  0  0  0  0  0
   11.0108   -6.3841    8.7874 H   0  0  0  0  0  0  0  0  0  0  0  0
   10.3115   -6.2924    7.1620 H   0  0  0  0  0  0  0  0  0  0  0  0
   11.3033   -7.6719    7.6255 H   0  0  0  0  0  0  0  0  0  0  0  0
   10.0908   -8.0147   10.4751 H   0  0  0  0  0  0  0  0  0  0  0  0
   10.5403   -9.2864    9.3351 H   0  0  0  0  0  0  0  0  0  0  0  0
    8.9048   -9.2239    9.9895 H   0  0  0  0  0  0  0  0  0  0  0  0
    7.1271    0.0843    7.3737 H   0  0  0  0  0  0  0  0  0  0  0  0
    7.3808    0.3825    9.0949 H   0  0  0  0  0  0  0  0  0  0  0  0
    8.4322    1.1349    7.8924 H   0  0  0  0  0  0  0  0  0  0  0  0
    6.5786    4.1356    8.6831 H   0  0  0  0  0  0  0  0  0  0  0  0
    8.1440    3.3709    8.4682 H   0  0  0  0  0  0  0  0  0  0  0  0
    7.1643    2.9830    9.8817 H   0  0  0  0  0  0  0  0  0  0  0  0
    5.7236    3.3683    6.4769 H   0  0  0  0  0  0  0  0  0  0  0  0
    5.9031    1.6880    5.9738 H   0  0  0  0  0  0  0  0  0  0  0  0
    7.3314    2.7113    6.1482 H   0  0  0  0  0  0  0  0  0  0  0  0
   -0.8547    6.6252    5.8114 H   0  0  0  0  0  0  0  0  0  0  0  0
    0.0656    7.2774    7.1655 H   0  0  0  0  0  0  0  0  0  0  0  0
   -1.4034    8.0903    6.6302 H   0  0  0  0  0  0  0  0  0  0  0  0
   -2.4416    6.3496    9.7994 H   0  0  0  0  0  0  0  0  0  0  0  0
   -2.3515    7.9260    9.0093 H   0  0  0  0  0  0  0  0  0  0  0  0
   -0.8770    7.1152    9.5326 H   0  0  0  0  0  0  0  0  0  0  0  0
   -3.8381    5.5780    7.8257 H   0  0  0  0  0  0  0  0  0  0  0  0
   -3.1862    5.6975    6.1822 H   0  0  0  0  0  0  0  0  0  0  0  0
   -3.6259    7.1528    7.0688 H   0  0  0  0  0  0  0  0  0  0  0  0
   -2.1210   -4.6363    9.4748 H   0  0  0  0  0  0  0  0  0  0  0  0
   -3.8215   -4.8321    9.8846 H   0  0  0  0  0  0  0  0  0  0  0  0
   -2.8015   -3.8188   10.8972 H   0  0  0  0  0  0  0  0  0  0  0  0
   -4.9261   -1.4143    8.9696 H   0  0  0  0  0  0  0  0  0  0  0  0
   -4.3921   -1.8753   10.5838 H   0  0  0  0  0  0  0  0  0  0  0  0
   -5.4256   -2.9632    9.6516 H   0  0  0  0  0  0  0  0  0  0  0  0
   -2.7827   -3.8920    7.1423 H   0  0  0  0  0  0  0  0  0  0  0  0
   -4.0100   -2.6455    6.9321 H   0  0  0  0  0  0  0  0  0  0  0  0
   -4.4527   -4.2022    7.6271 H   0  0  0  0  0  0  0  0  0  0  0  0
    8.4882   -7.9434    6.4843 H   0  0  0  0  0  0  0  0  0  0  0  0
    7.9466   -9.1785    7.6189 H   0  0  0  0  0  0  0  0  0  0  0  0
    9.5790   -9.2475    6.9607 H   0  0  0  0  0  0  0  0  0  0  0  0
    9.3026   -4.9269    8.7582 H   0  0  0  0  0  0  0  0  0  0  0  0
    6.8555   -8.3928    9.4255 H   0  0  0  0  0  0  0  0  0  0  0  0
    8.2276   -1.1788   10.8109 H   0  0  0  0  0  0  0  0  0  0  0  0
    2.9350   -8.0443   11.4988 H   0  0  0  0  0  0  0  0  0  0  0  0
    4.2258   -0.1196   11.9327 H   0  0  0  0  0  0  0  0  0  0  0  0
    0.3379   -4.7949   10.6079 H   0  0  0  0  0  0  0  0  0  0  0  0
   -0.9297   -2.7445   10.4019 H   0  0  0  0  0  0  0  0  0  0  0  0
    5.2407   -0.3436    8.3479 H   0  0  0  0  0  0  0  0  0  0  0  0
   -3.2712   -0.6154    7.5170 H   0  0  0  0  0  0  0  0  0  0  0  0
    4.4877    3.7906    8.9215 H   0  0  0  0  0  0  0  0  0  0  0  0
   -2.7288    3.6875    7.1620 H   0  0  0  0  0  0  0  0  0  0  0  0
    0.7275    5.7326    8.6903 H   0  0  0  0  0  0  0  0  0  0  0  0
    1.7159   -8.2238   13.3946 H   0  0  0  0  0  0  0  0  0  0  0  0
    0.0655   -8.0659   13.9905 H   0  0  0  0  0  0  0  0  0  0  0  0
    1.1458   -6.6688   13.9965 H   0  0  0  0  0  0  0  0  0  0  0  0
   -1.3504   -6.1182   11.2291 H   0  0  0  0  0  0  0  0  0  0  0  0
   -0.6465   -5.3632   12.6714 H   0  0  0  0  0  0  0  0  0  0  0  0
   -1.6127   -6.8294   12.8128 H   0  0  0  0  0  0  0  0  0  0  0  0
    0.8531   -9.1083   11.1666 H   0  0  0  0  0  0  0  0  0  0  0  0
   -0.3329   -8.1807   10.2505 H   0  0  0  0  0  0  0  0  0  0  0  0
   -0.8042   -8.9738   11.7562 H   0  0  0  0  0  0  0  0  0  0  0  0
    3.2405   -2.9723    7.5382 H   0  0  0  0  0  0  0  0  0  0  0  0
    4.7009   -2.0698    7.8392 H   0  0  0  0  0  0  0  0  0  0  0  0
    2.5132   -1.2835    5.8427 H   0  0  0  0  0  0  0  0  0  0  0  0
    4.0724   -2.0135    5.4342 H   0  0  0  0  0  0  0  0  0  0  0  0
    4.0035   -0.3789    6.1043 H   0  0  0  0  0  0  0  0  0  0  0  0
    0.9254   -2.8287    7.6365 H   0  0  0  0  0  0  0  0  0  0  0  0
    0.0061   -3.8719    8.7151 H   0  0  0  0  0  0  0  0  0  0  0  0
    2.2933   -4.8326    6.9281 H   0  0  0  0  0  0  0  0  0  0  0  0
    0.5655   -5.0631    6.6483 H   0  0  0  0  0  0  0  0  0  0  0  0
    1.3537   -5.8422    8.0260 H   0  0  0  0  0  0  0  0  0  0  0  0
  1  2  2  0  0  0  0
  1125  1  0  0  0  0
  2  3  1  0  0  0  0
  3  4  2  0  0  0  0
  3  7  1  0  0  0  0
  4  5  1  0  0  0  0
  5  6  2  0  0  0  0
  5123  1  0  0  0  0
  6  1  1  0  0  0  0
  6 72  1  0  0  0  0
  7  8  1  0  0  0  0
  7 11  2  0  0  0  0
  8  9  1  0  0  0  0
  9 10  2  0  0  0  0
 10  4  1  0  0  0  0
 11 12  1  0  0  0  0
 11 18  1  0  0  0  0
 12 13  2  0  0  0  0
 13 14  1  0  0  0  0
 14  8  1  0  0  0  0
 14 15  2  0  0  0  0
 15 16  1  0  0  0  0
 15122  1  0  0  0  0
 16 68  1  0  0  0  0
 16 17  2  0  0  0  0
 17  9  1  0  0  0  0
 17121  1  0  0  0  0
 18 46  1  0  0  0  0
 18 19  2  0  0  0  0
 19 20  1  0  0  0  0
 19126  1  0  0  0  0
 20 64  1  0  0  0  0
 20 21  2  0  0  0  0
 21 12  1  0  0  0  0
 21124  1  0  0  0  0
 22  2  1  0  0  0  0
 23 24  2  0  0  0  0
 23127  1  0  0  0  0
 24 25  1  0  0  0  0
 24 44  1  0  0  0  0
 25 26  2  0  0  0  0
 25 29  1  0  0  0  0
 26 27  1  0  0  0  0
 27 28  2  0  0  0  0
 27129  1  0  0  0  0
 28 60  1  0  0  0  0
 28 23  1  0  0  0  0
 29 33  2  0  0  0  0
 30 29  1  0  0  0  0
 30 31  1  0  0  0  0
 31 32  2  0  0  0  0
 32 26  1  0  0  0  0
 33 34  1  0  0  0  0
 33 40  1  0  0  0  0
 34 35  2  0  0  0  0
 35 36  1  0  0  0  0
 36 30  1  0  0  0  0
 36 37  2  0  0  0  0
 37 38  1  0  0  0  0
 37132  1  0  0  0  0
 38 52  1  0  0  0  0
 38 39  2  0  0  0  0
 39 31  1  0  0  0  0
 39131  1  0  0  0  0
 40 49  1  0  0  0  0
 40 41  2  0  0  0  0
 41 42  1  0  0  0  0
 41128  1  0  0  0  0
 42 56  1  0  0  0  0
 42 43  2  0  0  0  0
 43 34  1  0  0  0  0
 43130  1  0  0  0  0
 45 46  1  0  0  0  0
 45 49  1  0  0  0  0
 45 22  1  1  0  0  0
 45 44  1  0  0  0  0
 46 48  1  0  0  0  0
 47 48  1  0  0  0  0
 47149  1  0  0  0  0
 47150  1  0  0  0  0
 47151  1  0  0  0  0
 48147  1  0  0  0  0
 48148  1  0  0  0  0
 49 51  1  0  0  0  0
 50 51  1  0  0  0  0
 50144  1  0  0  0  0
 50145  1  0  0  0  0
 50146  1  0  0  0  0
 51142  1  0  0  0  0
 51143  1  0  0  0  0
 52 53  1  0  0  0  0
 52 54  1  0  0  0  0
 52 55  1  0  0  0  0
 53106  1  0  0  0  0
 53107  1  0  0  0  0
 53108  1  0  0  0  0
 54103  1  0  0  0  0
 54104  1  0  0  0  0
 54105  1  0  0  0  0
 55100  1  0  0  0  0
 55101  1  0  0  0  0
 55102  1  0  0  0  0
 56 57  1  0  0  0  0
 56 58  1  0  0  0  0
 56 59  1  0  0  0  0
 57 97  1  0  0  0  0
 57 98  1  0  0  0  0
 57 99  1  0  0  0  0
 58 94  1  0  0  0  0
 58 95  1  0  0  0  0
 58 96  1  0  0  0  0
 59 91  1  0  0  0  0
 59 92  1  0  0  0  0
 59 93  1  0  0  0  0
 60 61  1  0  0  0  0
 60 62  1  0  0  0  0
 60 63  1  0  0  0  0
 61115  1  0  0  0  0
 61116  1  0  0  0  0
 61117  1  0  0  0  0
 62109  1  0  0  0  0
 62110  1  0  0  0  0
 62111  1  0  0  0  0
 63112  1  0  0  0  0
 63113  1  0  0  0  0
 63114  1  0  0  0  0
 64 65  1  0  0  0  0
 64 66  1  0  0  0  0
 64 67  1  0  0  0  0
 65139  1  0  0  0  0
 65140  1  0  0  0  0
 65141  1  0  0  0  0
 66133  1  0  0  0  0
 66134  1  0  0  0  0
 66135  1  0  0  0  0
 67136  1  0  0  0  0
 67137  1  0  0  0  0
 67138  1  0  0  0  0
 68 69  1  0  0  0  0
 68 70  1  0  0  0  0
 68 71  1  0  0  0  0
 69 85  1  0  0  0  0
 69 86  1  0  0  0  0
 69 87  1  0  0  0  0
 70 88  1  0  0  0  0
 70 89  1  0  0  0  0
 70 90  1  0  0  0  0
 71118  1  0  0  0  0
 71119  1  0  0  0  0
 71120  1  0  0  0  0
 72 73  1  0  0  0  0
 72 77  1  0  0  0  0
 72 81  1  0  0  0  0
 73 74  1  0  0  0  0
 73 75  1  0  0  0  0
 73 76  1  0  0  0  0
 77 78  1  0  0  0  0
 77 79  1  0  0  0  0
 77 80  1  0  0  0  0
 81 82  1  0  0  0  0
 81 83  1  0  0  0  0
 81 84  1  0  0  0  0
152153  2  0  0  0  0
152276  1  0  0  0  0
153154  1  0  0  0  0
154155  2  0  0  0  0
154158  1  0  0  0  0
155156  1  0  0  0  0
156157  2  0  0  0  0
156274  1  0  0  0  0
157152  1  0  0  0  0
157223  1  0  0  0  0
158159  1  0  0  0  0
158162  2  0  0  0  0
159160  1  0  0  0  0
160161  2  0  0  0  0
161155  1  0  0  0  0
162163  1  0  0  0  0
162169  1  0  0  0  0
163164  2  0  0  0  0
164165  1  0  0  0  0
165159  1  0  0  0  0
165166  2  0  0  0  0
166167  1  0  0  0  0
166273  1  0  0  0  0
167219  1  0  0  0  0
167168  2  0  0  0  0
168160  1  0  0  0  0
168272  1  0  0  0  0
169197  1  0  0  0  0
169170  2  0  0  0  0
170171  1  0  0  0  0
170277  1  0  0  0  0
171215  1  0  0  0  0
171172  2  0  0  0  0
172163  1  0  0  0  0
172275  1  0  0  0  0
173153  1  0  0  0  0
174175  2  0  0  0  0
174278  1  0  0  0  0
175176  1  0  0  0  0
175195  1  0  0  0  0
176177  2  0  0  0  0
176180  1  0  0  0  0
177178  1  0  0  0  0
178179  2  0  0  0  0
178280  1  0  0  0  0
179211  1  0  0  0  0
179174  1  0  0  0  0
180184  2  0  0  0  0
181180  1  0  0  0  0
181182  1  0  0  0  0
182183  2  0  0  0  0
183177  1  0  0  0  0
184185  1  0  0  0  0
184191  1  0  0  0  0
185186  2  0  0  0  0
186187  1  0  0  0  0
187181  1  0  0  0  0
187188  2  0  0  0  0
188189  1  0  0  0  0
188283  1  0  0  0  0
189203  1  0  0  0  0
189190  2  0  0  0  0
190182  1  0  0  0  0
190282  1  0  0  0  0
191200  1  0  0  0  0
191192  2  0  0  0  0
192193  1  0  0  0  0
192279  1  0  0  0  0
193207  1  0  0  0  0
193194  2  0  0  0  0
194185  1  0  0  0  0
194281  1  0  0  0  0
196197  1  0  0  0  0
196200  1  0  0  0  0
196173  1  1  0  0  0
196195  1  0  0  0  0
197199  1  0  0  0  0
198199  1  0  0  0  0
198300  1  0  0  0  0
198301  1  0  0  0  0
198302  1  0  0  0  0
199298  1  0  0  0  0
199299  1  0  0  0  0
200202  1  0  0  0  0
201202  1  0  0  0  0
201295  1  0  0  0  0
201296  1  0  0  0  0
201297  1  0  0  0  0
202293  1  0  0  0  0
202294  1  0  0  0  0
203204  1  0  0  0  0
203205  1  0  0  0  0
203206  1  0  0  0  0
204257  1  0  0  0  0
204258  1  0  0  0  0
204259  1  0  0  0  0
205254  1  0  0  0  0
205255  1  0  0  0  0
205256  1  0  0  0  0
206251  1  0  0  0  0
206252  1  0  0  0  0
206253  1  0  0  0  0
207208  1  0  0  0  0
207209  1  0  0  0  0
207210  1  0  0  0  0
208248  1  0  0  0  0
208249  1  0  0  0  0
208250  1  0  0  0  0
209245  1  0  0  0  0
209246  1  0  0  0  0
209247  1  0  0  0  0
210242  1  0  0  0  0
210243  1  0  0  0  0
210244  1  0  0  0  0
211212  1  0  0  0  0
211213  1  0  0  0  0
211214  1  0  0  0  0
212266  1  0  0  0  0
212267  1  0  0  0  0
212268  1  0  0  0  0
213260  1  0  0  0  0
213261  1  0  0  0  0
213262  1  0  0  0  0
214263  1  0  0  0  0
214264  1  0  0  0  0
214265  1  0  0  0  0
215216  1  0  0  0  0
215217  1  0  0  0  0
215218  1  0  0  0  0
216290  1  0  0  0  0
216291  1  0  0  0  0
216292  1  0  0  0  0
217284  1  0  0  0  0
217285  1  0  0  0  0
217286  1  0  0  0  0
218287  1  0  0  0  0
218288  1  0  0  0  0
218289  1  0  0  0  0
219220  1  0  0  0  0
219221  1  0  0  0  0
219222  1  0  0  0  0
220236  1  0  0  0  0
220237  1  0  0  0  0
220238  1  0  0  0  0
221239  1  0  0  0  0
221240  1  0  0  0  0
221241  1  0  0  0  0
222269  1  0  0  0  0
222270  1  0  0  0  0
222271  1  0  0  0  0
223224  1  0  0  0  0
223228  1  0  0  0  0
223232  1  0  0  0  0
224225  1  0  0  0  0
224226  1  0  0  0  0
224227  1  0  0  0  0
228229  1  0  0  0  0
228230  1  0  0  0  0
228231  1  0  0  0  0
232233  1  0  0  0  0
232234  1  0  0  0  0
232235  1  0  0  0  0
M  CHG  6   8  -1  30  -1  45  -1 159  -1 181  -1 196  -1
M  END
