 energy: -290.543946002567 gnorm: 0.000178135506 xtb: 6.6.1 (8d0f1dd)
          11072416323D

109120  0     0  0            999 V2000
    1.9366    1.5163    1.9734 C   0  0  0  0  0  0  0  0  0  0  0  0
    1.8433    0.2079    1.5016 C   0  0  0  0  0  0  0  0  0  0  0  0
    3.0050   -0.4884    1.0737 C   0  0  0  0  0  0  0  0  0  0  0  0
    4.2179    0.2805    0.9856 C   0  0  0  0  0  0  0  0  0  0  0  0
    4.2694    1.6320    1.4284 C   0  0  0  0  0  0  0  0  0  0  0  0
    3.1501    2.1704    1.9664 C   0  0  0  0  0  0  0  0  0  0  0  0
    3.0841   -1.9179    0.9046 C   0  0  0  0  0  0  0  0  0  0  0  0
    4.4036   -2.4155    0.7633 C   0  0  0  0  0  0  0  0  0  0  0  0
    5.4953   -1.5352    0.4814 C   0  0  0  0  0  0  0  0  0  0  0  0
    5.3782   -0.2200    0.5692 N   0  0  0  0  0  0  0  0  0  0  0  0
    2.0371   -2.9200    1.0259 C   0  0  0  0  0  0  0  0  0  0  0  0
    2.5086   -4.1950    1.5214 C   0  0  0  0  0  0  0  0  0  0  0  0
    3.7727   -4.5973    1.4908 N   0  0  0  0  0  0  0  0  0  0  0  0
    4.6916   -3.7965    0.9706 C   0  0  0  0  0  0  0  0  0  0  0  0
    5.9859   -4.3038    0.7179 C   0  0  0  0  0  0  0  0  0  0  0  0
    6.9494   -3.4272    0.2954 C   0  0  0  0  0  0  0  0  0  0  0  0
    6.7691   -2.0779    0.1753 C   0  0  0  0  0  0  0  0  0  0  0  0
    0.6575   -2.8911    0.6389 C   0  0  0  0  0  0  0  0  0  0  0  0
   -0.1683   -3.9629    1.0071 C   0  0  0  0  0  0  0  0  0  0  0  0
    0.2977   -5.0264    1.7410 C   0  0  0  0  0  0  0  0  0  0  0  0
    1.6159   -5.1962    1.9969 C   0  0  0  0  0  0  0  0  0  0  0  0
    0.6580   -0.3675    1.5473 O   0  0  0  0  0  0  0  0  0  0  0  0
   -3.1969   -1.9053    0.5568 C   0  0  0  0  0  0  0  0  0  0  0  0
   -2.6362   -0.6424    0.3364 C   0  0  0  0  0  0  0  0  0  0  0  0
   -3.3086    0.3053   -0.4739 C   0  0  0  0  0  0  0  0  0  0  0  0
   -4.5519   -0.1133   -1.0623 C   0  0  0  0  0  0  0  0  0  0  0  0
   -4.9747   -1.4696   -0.9959 C   0  0  0  0  0  0  0  0  0  0  0  0
   -4.3098   -2.2972   -0.1558 C   0  0  0  0  0  0  0  0  0  0  0  0
   -2.9434    1.7017   -0.5786 C   0  0  0  0  0  0  0  0  0  0  0  0
   -4.0449    2.5427   -0.8869 C   0  0  0  0  0  0  0  0  0  0  0  0
   -5.2626    2.0111   -1.4141 C   0  0  0  0  0  0  0  0  0  0  0  0
   -5.4363    0.7112   -1.6133 N   0  0  0  0  0  0  0  0  0  0  0  0
   -1.6621    2.3549   -0.3998 C   0  0  0  0  0  0  0  0  0  0  0  0
   -1.7326    3.7921   -0.2354 C   0  0  0  0  0  0  0  0  0  0  0  0
   -2.8523    4.5091   -0.2342 N   0  0  0  0  0  0  0  0  0  0  0  0
   -3.9731    3.9459   -0.6509 C   0  0  0  0  0  0  0  0  0  0  0  0
   -5.0996    4.7736   -0.8757 C   0  0  0  0  0  0  0  0  0  0  0  0
   -6.2212    4.2047   -1.4106 C   0  0  0  0  0  0  0  0  0  0  0  0
   -6.3409    2.8765   -1.7158 C   0  0  0  0  0  0  0  0  0  0  0  0
   -0.3422    1.8042   -0.5617 C   0  0  0  0  0  0  0  0  0  0  0  0
    0.7397    2.7005   -0.6362 C   0  0  0  0  0  0  0  0  0  0  0  0
    0.6014    4.0565   -0.5009 C   0  0  0  0  0  0  0  0  0  0  0  0
   -0.5861    4.6359   -0.2250 C   0  0  0  0  0  0  0  0  0  0  0  0
   -1.5230   -0.3478    0.9823 O   0  0  0  0  0  0  0  0  0  0  0  0
   -0.2103   -0.5343    0.3978 B   0  0  0  0  0  0  0  0  0  0  0  0
    0.0784   -1.9358   -0.1751 N   0  0  0  0  0  0  0  0  0  0  0  0
    0.0281   -3.3954   -2.1758 C   0  0  0  0  0  0  0  0  0  0  0  0
   -0.7369   -2.4264   -1.2745 C   0  0  0  0  0  0  0  0  0  0  0  0
   -0.0330    0.4788   -0.7663 N   0  0  0  0  0  0  0  0  0  0  0  0
    0.8478    0.8076   -3.0572 C   0  0  0  0  0  0  0  0  0  0  0  0
    1.0771    0.2037   -1.6748 C   0  0  0  0  0  0  0  0  0  0  0  0
   -7.6752    5.3003   -1.7337 S   0  0  0  0  0  0  0  0  0  0  0  0
   -6.7377    6.4822   -2.4364 F   0  0  0  0  0  0  0  0  0  0  0  0
   -7.5318    6.0681   -0.2647 F   0  0  0  0  0  0  0  0  0  0  0  0
   -8.9509    6.2601   -2.0173 F   0  0  0  0  0  0  0  0  0  0  0  0
   -7.9537    4.6329   -3.2337 F   0  0  0  0  0  0  0  0  0  0  0  0
   -8.7469    4.2186   -1.0619 F   0  0  0  0  0  0  0  0  0  0  0  0
    2.0886    5.0508   -0.9921 S   0  0  0  0  0  0  0  0  0  0  0  0
    3.1460    3.9631   -0.2815 F   0  0  0  0  0  0  0  0  0  0  0  0
    2.0757    6.1075    0.2660 F   0  0  0  0  0  0  0  0  0  0  0  0
    3.3951    5.8433   -1.5334 F   0  0  0  0  0  0  0  0  0  0  0  0
    1.1553    6.1379   -1.8539 F   0  0  0  0  0  0  0  0  0  0  0  0
    2.2084    4.1349   -2.4050 F   0  0  0  0  0  0  0  0  0  0  0  0
   -4.8396   -4.0579    0.0255 S   0  0  0  0  0  0  0  0  0  0  0  0
   -6.4572   -3.6701    0.1036 F   0  0  0  0  0  0  0  0  0  0  0  0
   -4.7483   -4.0126    1.6730 F   0  0  0  0  0  0  0  0  0  0  0  0
   -5.2755   -5.6059    0.1475 F   0  0  0  0  0  0  0  0  0  0  0  0
   -3.2596   -4.5755   -0.0963 F   0  0  0  0  0  0  0  0  0  0  0  0
   -4.9867   -4.2344   -1.6312 F   0  0  0  0  0  0  0  0  0  0  0  0
   -0.9575   -6.2677    2.2887 S   0  0  0  0  0  0  0  0  0  0  0  0
   -1.4615   -6.5483    0.7374 F   0  0  0  0  0  0  0  0  0  0  0  0
   -2.1186   -5.1082    2.5184 F   0  0  0  0  0  0  0  0  0  0  0  0
   -2.0452   -7.3563    2.7812 F   0  0  0  0  0  0  0  0  0  0  0  0
   -0.5002   -6.1111    3.8847 F   0  0  0  0  0  0  0  0  0  0  0  0
    0.1139   -7.5403    2.1403 F   0  0  0  0  0  0  0  0  0  0  0  0
    8.6258   -4.1112   -0.0799 S   0  0  0  0  0  0  0  0  0  0  0  0
    7.9958   -5.3802   -0.9575 F   0  0  0  0  0  0  0  0  0  0  0  0
    8.6415   -5.0697    1.2806 F   0  0  0  0  0  0  0  0  0  0  0  0
   10.0916   -4.7154   -0.4202 F   0  0  0  0  0  0  0  0  0  0  0  0
    8.7646   -3.2179   -1.4786 F   0  0  0  0  0  0  0  0  0  0  0  0
    9.4093   -2.9085    0.7602 F   0  0  0  0  0  0  0  0  0  0  0  0
    3.1797    3.8070    2.8257 S   0  0  0  0  0  0  0  0  0  0  0  0
    4.4526    3.3591    3.8077 F   0  0  0  0  0  0  0  0  0  0  0  0
    3.1329    5.2236    3.6106 F   0  0  0  0  0  0  0  0  0  0  0  0
    1.8351    4.3209    1.9619 F   0  0  0  0  0  0  0  0  0  0  0  0
    4.2774    4.5189    1.8250 F   0  0  0  0  0  0  0  0  0  0  0  0
    2.1418    3.2548    4.0157 F   0  0  0  0  0  0  0  0  0  0  0  0
   -0.5925   -3.6468   -3.0309 H   0  0  0  0  0  0  0  0  0  0  0  0
    0.2621   -4.3125   -1.6426 H   0  0  0  0  0  0  0  0  0  0  0  0
    0.9549   -2.9525   -2.5341 H   0  0  0  0  0  0  0  0  0  0  0  0
   -1.0463   -1.5447   -1.8391 H   0  0  0  0  0  0  0  0  0  0  0  0
   -1.6475   -2.9300   -0.9367 H   0  0  0  0  0  0  0  0  0  0  0  0
    1.1351   -0.8797   -1.7541 H   0  0  0  0  0  0  0  0  0  0  0  0
    2.0466    0.5285   -1.2769 H   0  0  0  0  0  0  0  0  0  0  0  0
   -0.1408    0.5386   -3.4217 H   0  0  0  0  0  0  0  0  0  0  0  0
    1.5918    0.4164   -3.7456 H   0  0  0  0  0  0  0  0  0  0  0  0
    0.9330    1.8903   -3.0445 H   0  0  0  0  0  0  0  0  0  0  0  0
   -5.8631   -1.7609   -1.5263 H   0  0  0  0  0  0  0  0  0  0  0  0
   -7.2399    2.4616   -2.1348 H   0  0  0  0  0  0  0  0  0  0  0  0
   -5.0325    5.8228   -0.6514 H   0  0  0  0  0  0  0  0  0  0  0  0
    5.2069    2.1552    1.3792 H   0  0  0  0  0  0  0  0  0  0  0  0
    6.1835   -5.3497    0.8673 H   0  0  0  0  0  0  0  0  0  0  0  0
    7.5682   -1.4121   -0.0967 H   0  0  0  0  0  0  0  0  0  0  0  0
    2.0290   -6.0753    2.4570 H   0  0  0  0  0  0  0  0  0  0  0  0
   -0.7310    5.6960   -0.1277 H   0  0  0  0  0  0  0  0  0  0  0  0
   -1.2051   -3.9575    0.7316 H   0  0  0  0  0  0  0  0  0  0  0  0
    1.0488    1.9821    2.3622 H   0  0  0  0  0  0  0  0  0  0  0  0
    1.7297    2.3235   -0.8001 H   0  0  0  0  0  0  0  0  0  0  0  0
   -2.7456   -2.5546    1.2874 H   0  0  0  0  0  0  0  0  0  0  0  0
  1  2  2  0  0  0  0
  1107  1  0  0  0  0
  2  3  1  0  0  0  0
  3  4  2  0  0  0  0
  3  7  1  0  0  0  0
  4  5  1  0  0  0  0
  5  6  2  0  0  0  0
  5101  1  0  0  0  0
  6  1  1  0  0  0  0
  6 82  1  0  0  0  0
  7  8  1  0  0  0  0
  7 11  2  0  0  0  0
  8  9  1  0  0  0  0
  9 10  2  0  0  0  0
 10  4  1  0  0  0  0
 11 12  1  0  0  0  0
 11 18  1  0  0  0  0
 12 13  2  0  0  0  0
 13 14  1  0  0  0  0
 14  8  1  0  0  0  0
 14 15  2  0  0  0  0
 15 16  1  0  0  0  0
 15102  1  0  0  0  0
 16 76  1  0  0  0  0
 16 17  2  0  0  0  0
 17  9  1  0  0  0  0
 17103  1  0  0  0  0
 18 46  1  0  0  0  0
 18 19  2  0  0  0  0
 19 20  1  0  0  0  0
 19106  1  0  0  0  0
 20 70  1  0  0  0  0
 20 21  2  0  0  0  0
 21 12  1  0  0  0  0
 21104  1  0  0  0  0
 22  2  1  0  0  0  0
 23 24  2  0  0  0  0
 23109  1  0  0  0  0
 24 25  1  0  0  0  0
 24 44  1  0  0  0  0
 25 26  2  0  0  0  0
 25 29  1  0  0  0  0
 26 27  1  0  0  0  0
 27 28  2  0  0  0  0
 27 98  1  0  0  0  0
 28 64  1  0  0  0  0
 28 23  1  0  0  0  0
 29 33  2  0  0  0  0
 30 29  1  0  0  0  0
 30 31  1  0  0  0  0
 31 32  2  0  0  0  0
 32 26  1  0  0  0  0
 33 34  1  0  0  0  0
 33 40  1  0  0  0  0
 34 35  2  0  0  0  0
 35 36  1  0  0  0  0
 36 30  1  0  0  0  0
 36 37  2  0  0  0  0
 37 38  1  0  0  0  0
 37100  1  0  0  0  0
 38 52  1  0  0  0  0
 38 39  2  0  0  0  0
 39 31  1  0  0  0  0
 39 99  1  0  0  0  0
 40 49  1  0  0  0  0
 40 41  2  0  0  0  0
 41 42  1  0  0  0  0
 41108  1  0  0  0  0
 42 58  1  0  0  0  0
 42 43  2  0  0  0  0
 43 34  1  0  0  0  0
 43105  1  0  0  0  0
 45 46  1  0  0  0  0
 45 49  1  0  0  0  0
 45 22  1  0  0  0  0
 45 44  1  0  0  0  0
 46 48  1  0  0  0  0
 47 48  1  0  0  0  0
 47 88  1  0  0  0  0
 47 89  1  0  0  0  0
 47 90  1  0  0  0  0
 48 91  1  0  0  0  0
 48 92  1  0  0  0  0
 49 51  1  0  0  0  0
 50 51  1  0  0  0  0
 50 95  1  0  0  0  0
 50 96  1  0  0  0  0
 50 97  1  0  0  0  0
 51 93  1  0  0  0  0
 51 94  1  0  0  0  0
 52 53  1  0  0  0  0
 52 54  1  0  0  0  0
 52 55  1  0  0  0  0
 52 56  1  0  0  0  0
 52 57  1  0  0  0  0
 58 59  1  0  0  0  0
 58 60  1  0  0  0  0
 58 61  1  0  0  0  0
 58 62  1  0  0  0  0
 58 63  1  0  0  0  0
 64 65  1  0  0  0  0
 64 66  1  0  0  0  0
 64 67  1  0  0  0  0
 64 68  1  0  0  0  0
 64 69  1  0  0  0  0
 70 71  1  0  0  0  0
 70 72  1  0  0  0  0
 70 73  1  0  0  0  0
 70 74  1  0  0  0  0
 70 75  1  0  0  0  0
 76 77  1  0  0  0  0
 76 78  1  0  0  0  0
 76 79  1  0  0  0  0
 76 80  1  0  0  0  0
 76 81  1  0  0  0  0
 82 83  1  0  0  0  0
 82 84  1  0  0  0  0
 82 85  1  0  0  0  0
 82 86  1  0  0  0  0
 82 87  1  0  0  0  0
M  CHG  1   1  -1
M  END
