 xtb: 6.7.1 (edcfbbe)
          11282414183D

218240  0     0  0            999 V2000
    2.1560    2.1659    1.8501 C   0  0  0  0  0  0  0  0  0  0  0  0
    2.1265    0.7831    1.7011 C   0  0  0  0  0  0  0  0  0  0  0  0
    3.2186    0.0618    1.1747 C   0  0  0  0  0  0  0  0  0  0  0  0
    4.3711    0.8447    0.8134 C   0  0  0  0  0  0  0  0  0  0  0  0
    4.4002    2.2563    1.0268 C   0  0  0  0  0  0  0  0  0  0  0  0
    3.3037    2.8635    1.5445 C   0  0  0  0  0  0  0  0  0  0  0  0
    3.2484   -1.3810    1.0536 C   0  0  0  0  0  0  0  0  0  0  0  0
    4.4782   -1.8732    0.5407 C   0  0  0  0  0  0  0  0  0  0  0  0
    5.5331   -0.9950    0.1393 C   0  0  0  0  0  0  0  0  0  0  0  0
    5.4638    0.3205    0.2770 N   0  0  0  0  0  0  0  0  0  0  0  0
    2.2832   -2.3651    1.5198 C   0  0  0  0  0  0  0  0  0  0  0  0
    2.8691   -3.6723    1.7400 C   0  0  0  0  0  0  0  0  0  0  0  0
    3.9421   -4.1153    1.1109 N   0  0  0  0  0  0  0  0  0  0  0  0
    4.7292   -3.2742    0.4719 C   0  0  0  0  0  0  0  0  0  0  0  0
    5.9179   -3.7816   -0.1064 C   0  0  0  0  0  0  0  0  0  0  0  0
    6.8750   -2.8894   -0.5071 C   0  0  0  0  0  0  0  0  0  0  0  0
    6.7316   -1.5310   -0.3965 C   0  0  0  0  0  0  0  0  0  0  0  0
    0.8618   -2.3529    1.8344 C   0  0  0  0  0  0  0  0  0  0  0  0
    0.4101   -3.2491    2.8200 C   0  0  0  0  0  0  0  0  0  0  0  0
    1.2075   -4.2541    3.3218 C   0  0  0  0  0  0  0  0  0  0  0  0
    2.3585   -4.5938    2.6968 C   0  0  0  0  0  0  0  0  0  0  0  0
    1.0498    0.1319    2.0739 O   0  0  0  0  0  0  0  0  0  0  0  0
   -2.8060   -0.5480    2.9897 C   0  0  0  0  0  0  0  0  0  0  0  0
   -2.4080    0.2506    1.9205 C   0  0  0  0  0  0  0  0  0  0  0  0
   -3.3243    0.6158    0.9031 C   0  0  0  0  0  0  0  0  0  0  0  0
   -4.6457    0.0584    1.0064 C   0  0  0  0  0  0  0  0  0  0  0  0
   -4.9914   -0.8471    2.0533 C   0  0  0  0  0  0  0  0  0  0  0  0
   -4.0735   -1.0831    3.0210 C   0  0  0  0  0  0  0  0  0  0  0  0
   -3.0573    1.5905   -0.1276 C   0  0  0  0  0  0  0  0  0  0  0  0
   -4.2243    2.0772   -0.7644 C   0  0  0  0  0  0  0  0  0  0  0  0
   -5.4819    1.4160   -0.6089 C   0  0  0  0  0  0  0  0  0  0  0  0
   -5.6410    0.3683    0.1849 N   0  0  0  0  0  0  0  0  0  0  0  0
   -1.8032    2.2178   -0.5084 C   0  0  0  0  0  0  0  0  0  0  0  0
   -1.9398    3.5143   -1.1390 C   0  0  0  0  0  0  0  0  0  0  0  0
   -3.0830    4.0128   -1.5833 N   0  0  0  0  0  0  0  0  0  0  0  0
   -4.1924    3.3020   -1.4955 C   0  0  0  0  0  0  0  0  0  0  0  0
   -5.3790    3.8377   -2.0500 C   0  0  0  0  0  0  0  0  0  0  0  0
   -6.5475    3.1391   -1.8991 C   0  0  0  0  0  0  0  0  0  0  0  0
   -6.6365    1.9426   -1.2395 C   0  0  0  0  0  0  0  0  0  0  0  0
   -0.4753    1.6855   -0.5008 C   0  0  0  0  0  0  0  0  0  0  0  0
    0.5866    2.4896   -0.9387 C   0  0  0  0  0  0  0  0  0  0  0  0
    0.4164    3.7782   -1.3860 C   0  0  0  0  0  0  0  0  0  0  0  0
   -0.8189    4.3223   -1.4937 C   0  0  0  0  0  0  0  0  0  0  0  0
   -1.1539    0.6480    1.9216 O   0  0  0  0  0  0  0  0  0  0  0  0
   -0.1061   -0.1136    1.2234 B   0  0  0  0  0  0  0  0  0  0  0  0
   -0.1296   -1.6406    1.2047 N   0  0  0  0  0  0  0  0  0  0  0  0
   -1.0211   -3.6304    0.0164 C   0  0  0  0  0  0  0  0  0  0  0  0
   -1.3300   -2.3649    0.8153 C   0  0  0  0  0  0  0  0  0  0  0  0
   -0.1422    0.3726   -0.2229 N   0  0  0  0  0  0  0  0  0  0  0  0
    0.2693   -0.1339   -2.6128 C   0  0  0  0  0  0  0  0  0  0  0  0
    0.7463   -0.2827   -1.1717 C   0  0  0  0  0  0  0  0  0  0  0  0
   -8.1030    3.8865   -2.5552 S   0  0  0  0  0  0  0  0  0  0  0  0
   -8.6020    2.4238   -3.1637 F   0  0  0  0  0  0  0  0  0  0  0  0
   -7.3839    4.2308   -4.0093 F   0  0  0  0  0  0  0  0  0  0  0  0
   -9.4609    4.5115   -3.1537 F   0  0  0  0  0  0  0  0  0  0  0  0
   -8.9295    3.5736   -1.1629 F   0  0  0  0  0  0  0  0  0  0  0  0
   -7.7163    5.3916   -2.0199 F   0  0  0  0  0  0  0  0  0  0  0  0
    1.9166    4.5578   -2.1508 S   0  0  0  0  0  0  0  0  0  0  0  0
    2.9576    3.7677   -1.1120 F   0  0  0  0  0  0  0  0  0  0  0  0
    1.8708    5.9430   -1.2920 F   0  0  0  0  0  0  0  0  0  0  0  0
    3.2223    5.1225   -2.9007 F   0  0  0  0  0  0  0  0  0  0  0  0
    1.0010    5.2882   -3.3282 F   0  0  0  0  0  0  0  0  0  0  0  0
    2.0363    3.2126   -3.1538 F   0  0  0  0  0  0  0  0  0  0  0  0
   -4.3619   -2.2860    4.4008 S   0  0  0  0  0  0  0  0  0  0  0  0
   -5.2736   -3.2937    3.4619 F   0  0  0  0  0  0  0  0  0  0  0  0
   -5.7191   -1.5189    4.9489 F   0  0  0  0  0  0  0  0  0  0  0  0
   -4.5260   -3.3374    5.6127 F   0  0  0  0  0  0  0  0  0  0  0  0
   -3.4280   -1.3812    5.4862 F   0  0  0  0  0  0  0  0  0  0  0  0
   -2.9765   -3.1235    3.9564 F   0  0  0  0  0  0  0  0  0  0  0  0
    0.7872   -4.9934    4.9698 S   0  0  0  0  0  0  0  0  0  0  0  0
   -0.1510   -6.2174    4.3870 F   0  0  0  0  0  0  0  0  0  0  0  0
   -0.5547   -4.0265    5.1881 F   0  0  0  0  0  0  0  0  0  0  0  0
    0.4940   -5.5187    6.4846 F   0  0  0  0  0  0  0  0  0  0  0  0
    1.7004   -3.7651    5.6998 F   0  0  0  0  0  0  0  0  0  0  0  0
    2.1202   -5.9786    5.0021 F   0  0  0  0  0  0  0  0  0  0  0  0
    8.4684   -3.5588   -1.1570 S   0  0  0  0  0  0  0  0  0  0  0  0
    8.5548   -4.7286   -0.0035 F   0  0  0  0  0  0  0  0  0  0  0  0
    9.3668   -2.5395   -0.2263 F   0  0  0  0  0  0  0  0  0  0  0  0
    9.8446   -4.1370   -1.7598 F   0  0  0  0  0  0  0  0  0  0  0  0
    7.6671   -4.6189   -2.1516 F   0  0  0  0  0  0  0  0  0  0  0  0
    8.4890   -2.4430   -2.3836 F   0  0  0  0  0  0  0  0  0  0  0  0
    3.2108    4.6793    1.8699 S   0  0  0  0  0  0  0  0  0  0  0  0
    4.5088    4.6882    2.8788 F   0  0  0  0  0  0  0  0  0  0  0  0
    3.0453    6.2652    2.1055 F   0  0  0  0  0  0  0  0  0  0  0  0
    1.8155    4.7532    0.9182 F   0  0  0  0  0  0  0  0  0  0  0  0
    4.2116    5.0697    0.6228 F   0  0  0  0  0  0  0  0  0  0  0  0
    2.1824    4.5066    3.1740 F   0  0  0  0  0  0  0  0  0  0  0  0
   -1.9546   -4.0650   -0.3284 H   0  0  0  0  0  0  0  0  0  0  0  0
   -0.5056   -4.3668    0.6256 H   0  0  0  0  0  0  0  0  0  0  0  0
   -0.4066   -3.3993   -0.8498 H   0  0  0  0  0  0  0  0  0  0  0  0
   -1.8949   -1.6729    0.1887 H   0  0  0  0  0  0  0  0  0  0  0  0
   -1.9563   -2.6317    1.6725 H   0  0  0  0  0  0  0  0  0  0  0  0
    0.7424   -1.3356   -0.8844 H   0  0  0  0  0  0  0  0  0  0  0  0
    1.7824    0.0695   -1.0923 H   0  0  0  0  0  0  0  0  0  0  0  0
   -0.7846   -0.3887   -2.6880 H   0  0  0  0  0  0  0  0  0  0  0  0
    0.8368   -0.8081   -3.2478 H   0  0  0  0  0  0  0  0  0  0  0  0
    0.4153    0.8781   -2.9793 H   0  0  0  0  0  0  0  0  0  0  0  0
   -5.9823   -1.2645    2.0586 H   0  0  0  0  0  0  0  0  0  0  0  0
   -7.5741    1.4278   -1.1146 H   0  0  0  0  0  0  0  0  0  0  0  0
   -5.3428    4.7974   -2.5365 H   0  0  0  0  0  0  0  0  0  0  0  0
    5.2955    2.7911    0.7626 H   0  0  0  0  0  0  0  0  0  0  0  0
    6.0766   -4.8459   -0.1306 H   0  0  0  0  0  0  0  0  0  0  0  0
    7.5146   -0.8497   -0.6856 H   0  0  0  0  0  0  0  0  0  0  0  0
    2.9522   -5.4629    2.9090 H   0  0  0  0  0  0  0  0  0  0  0  0
   -1.0112    5.2891   -1.9250 H   0  0  0  0  0  0  0  0  0  0  0  0
   -0.5987   -3.1392    3.1794 H   0  0  0  0  0  0  0  0  0  0  0  0
    1.2812    2.6563    2.2369 H   0  0  0  0  0  0  0  0  0  0  0  0
    1.5800    2.0814   -0.9301 H   0  0  0  0  0  0  0  0  0  0  0  0
   -2.0733   -0.7766    3.7422 H   0  0  0  0  0  0  0  0  0  0  0  0
    2.0274    1.2418   10.4008 C   0  0  0  0  0  0  0  0  0  0  0  0
    1.7383   -0.0077    9.8497 C   0  0  0  0  0  0  0  0  0  0  0  0
    2.7240   -0.7421    9.1502 C   0  0  0  0  0  0  0  0  0  0  0  0
    3.9963   -0.0874    8.9704 C   0  0  0  0  0  0  0  0  0  0  0  0
    4.2871    1.1489    9.6067 C   0  0  0  0  0  0  0  0  0  0  0  0
    3.2910    1.7857   10.2735 C   0  0  0  0  0  0  0  0  0  0  0  0
    2.5794   -2.0925    8.6553 C   0  0  0  0  0  0  0  0  0  0  0  0
    3.6589   -2.5261    7.8502 C   0  0  0  0  0  0  0  0  0  0  0  0
    4.7010   -1.6312    7.4570 C   0  0  0  0  0  0  0  0  0  0  0  0
    4.9210   -0.5169    8.1258 N   0  0  0  0  0  0  0  0  0  0  0  0
    1.5908   -3.0993    8.9787 C   0  0  0  0  0  0  0  0  0  0  0  0
    2.1205   -4.4506    8.8989 C   0  0  0  0  0  0  0  0  0  0  0  0
    3.1288   -4.8035    8.1206 N   0  0  0  0  0  0  0  0  0  0  0  0
    3.7741   -3.8808    7.4286 C   0  0  0  0  0  0  0  0  0  0  0  0
    4.6151   -4.2131    6.3411 C   0  0  0  0  0  0  0  0  0  0  0  0
    5.3603   -3.2046    5.7797 C   0  0  0  0  0  0  0  0  0  0  0  0
    5.4984   -1.9604    6.3366 C   0  0  0  0  0  0  0  0  0  0  0  0
    0.1942   -3.0425    9.3513 C   0  0  0  0  0  0  0  0  0  0  0  0
   -0.3058   -4.1033   10.1347 C   0  0  0  0  0  0  0  0  0  0  0  0
    0.3814   -5.2851   10.2865 C   0  0  0  0  0  0  0  0  0  0  0  0
    1.5334   -5.5315    9.6134 C   0  0  0  0  0  0  0  0  0  0  0  0
    0.5090   -0.4645    9.9629 O   0  0  0  0  0  0  0  0  0  0  0  0
   -3.6602   -0.3309    9.5542 C   0  0  0  0  0  0  0  0  0  0  0  0
   -2.7146    0.2709    8.7083 C   0  0  0  0  0  0  0  0  0  0  0  0
   -3.1188    0.8386    7.4658 C   0  0  0  0  0  0  0  0  0  0  0  0
   -4.5105    0.6622    7.1206 C   0  0  0  0  0  0  0  0  0  0  0  0
   -5.3897   -0.1214    7.9181 C   0  0  0  0  0  0  0  0  0  0  0  0
   -4.9480   -0.5599    9.1195 C   0  0  0  0  0  0  0  0  0  0  0  0
   -2.3172    1.6564    6.5798 C   0  0  0  0  0  0  0  0  0  0  0  0
   -3.0482    2.3771    5.6019 C   0  0  0  0  0  0  0  0  0  0  0  0
   -4.4209    2.0805    5.3397 C   0  0  0  0  0  0  0  0  0  0  0  0
   -5.0959    1.2087    6.0680 N   0  0  0  0  0  0  0  0  0  0  0  0
   -0.8829    1.8987    6.5738 C   0  0  0  0  0  0  0  0  0  0  0  0
   -0.4344    3.0859    5.8764 C   0  0  0  0  0  0  0  0  0  0  0  0
   -1.2149    3.8438    5.1194 N   0  0  0  0  0  0  0  0  0  0  0  0
   -2.4479    3.4449    4.8690 C   0  0  0  0  0  0  0  0  0  0  0  0
   -3.1708    4.1155    3.8536 C   0  0  0  0  0  0  0  0  0  0  0  0
   -4.4442    3.7002    3.5808 C   0  0  0  0  0  0  0  0  0  0  0  0
   -5.1022    2.7257    4.2799 C   0  0  0  0  0  0  0  0  0  0  0  0
    0.1553    1.0674    7.0711 C   0  0  0  0  0  0  0  0  0  0  0  0
    1.4843    1.4704    6.9981 C   0  0  0  0  0  0  0  0  0  0  0  0
    1.8537    2.6232    6.3369 C   0  0  0  0  0  0  0  0  0  0  0  0
    0.9365    3.4564    5.7988 C   0  0  0  0  0  0  0  0  0  0  0  0
   -1.4802    0.3098    9.1707 O   0  0  0  0  0  0  0  0  0  0  0  0
   -0.4083   -0.6547    8.8578 B   0  0  0  0  0  0  0  0  0  0  0  0
   -0.7305   -2.1518    8.8976 N   0  0  0  0  0  0  0  0  0  0  0  0
   -2.1680   -4.0640    8.0222 C   0  0  0  0  0  0  0  0  0  0  0  0
   -2.0535   -2.6380    8.5566 C   0  0  0  0  0  0  0  0  0  0  0  0
    0.0147   -0.2760    7.4449 N   0  0  0  0  0  0  0  0  0  0  0  0
    0.7946   -0.8088    5.1440 C   0  0  0  0  0  0  0  0  0  0  0  0
   -0.0675   -1.1987    6.3388 C   0  0  0  0  0  0  0  0  0  0  0  0
   -5.2730    4.4139    2.0942 S   0  0  0  0  0  0  0  0  0  0  0  0
   -5.7907    2.8860    1.6362 F   0  0  0  0  0  0  0  0  0  0  0  0
   -3.8737    4.1649    1.1986 F   0  0  0  0  0  0  0  0  0  0  0  0
   -5.9403    4.9311    0.7150 F   0  0  0  0  0  0  0  0  0  0  0  0
   -6.7118    4.6715    2.8490 F   0  0  0  0  0  0  0  0  0  0  0  0
   -4.7981    5.9608    2.3981 F   0  0  0  0  0  0  0  0  0  0  0  0
    3.6498    2.8246    5.9434 S   0  0  0  0  0  0  0  0  0  0  0  0
    3.9075    1.1512    6.0155 F   0  0  0  0  0  0  0  0  0  0  0  0
    4.0518    2.9034    7.5510 F   0  0  0  0  0  0  0  0  0  0  0  0
    5.2168    2.9290    5.5989 F   0  0  0  0  0  0  0  0  0  0  0  0
    3.5583    4.4503    5.8116 F   0  0  0  0  0  0  0  0  0  0  0  0
    3.3716    2.5902    4.3106 F   0  0  0  0  0  0  0  0  0  0  0  0
   -6.0435   -1.5885   10.1881 S   0  0  0  0  0  0  0  0  0  0  0  0
   -7.3490   -0.6063    9.9435 F   0  0  0  0  0  0  0  0  0  0  0  0
   -5.6351   -0.7255   11.5443 F   0  0  0  0  0  0  0  0  0  0  0  0
   -6.9730   -2.5010   11.1307 F   0  0  0  0  0  0  0  0  0  0  0  0
   -4.7944   -2.6465   10.5121 F   0  0  0  0  0  0  0  0  0  0  0  0
   -6.5043   -2.5314    8.9151 F   0  0  0  0  0  0  0  0  0  0  0  0
   -0.3821   -6.6021   11.3243 S   0  0  0  0  0  0  0  0  0  0  0  0
   -1.8726   -6.3703   10.6412 F   0  0  0  0  0  0  0  0  0  0  0  0
   -0.7666   -5.5102   12.5100 F   0  0  0  0  0  0  0  0  0  0  0  0
   -1.0465   -7.7393   12.2461 F   0  0  0  0  0  0  0  0  0  0  0  0
    1.0573   -6.9178   12.0778 F   0  0  0  0  0  0  0  0  0  0  0  0
   -0.0527   -7.7784   10.2149 F   0  0  0  0  0  0  0  0  0  0  0  0
    6.1488   -3.4766    4.1214 S   0  0  0  0  0  0  0  0  0  0  0  0
    5.1060   -4.7162    3.7382 F   0  0  0  0  0  0  0  0  0  0  0  0
    7.2465   -4.5744    4.6704 F   0  0  0  0  0  0  0  0  0  0  0  0
    6.7499   -3.6667    2.6238 F   0  0  0  0  0  0  0  0  0  0  0  0
    5.0520   -2.4009    3.4270 F   0  0  0  0  0  0  0  0  0  0  0  0
    7.2456   -2.2540    4.2907 F   0  0  0  0  0  0  0  0  0  0  0  0
    3.5407    3.5295   10.8442 S   0  0  0  0  0  0  0  0  0  0  0  0
    4.5210    3.0684   12.0983 F   0  0  0  0  0  0  0  0  0  0  0  0
    3.6987    5.0593   11.3295 F   0  0  0  0  0  0  0  0  0  0  0  0
    2.5302    4.0676    9.6345 F   0  0  0  0  0  0  0  0  0  0  0  0
    4.8762    3.7830    9.9266 F   0  0  0  0  0  0  0  0  0  0  0  0
    2.2384    3.4649   11.8769 F   0  0  0  0  0  0  0  0  0  0  0  0
   -3.0762   -4.1185    7.4291 H   0  0  0  0  0  0  0  0  0  0  0  0
   -2.2402   -4.8140    8.8005 H   0  0  0  0  0  0  0  0  0  0  0  0
   -1.3317   -4.3049    7.3772 H   0  0  0  0  0  0  0  0  0  0  0  0
   -2.4169   -1.9647    7.7800 H   0  0  0  0  0  0  0  0  0  0  0  0
   -2.7267   -2.5318    9.4175 H   0  0  0  0  0  0  0  0  0  0  0  0
   -1.1097   -1.3136    6.0096 H   0  0  0  0  0  0  0  0  0  0  0  0
    0.2455   -2.1731    6.7175 H   0  0  0  0  0  0  0  0  0  0  0  0
    0.4077    0.0526    4.6059 H   0  0  0  0  0  0  0  0  0  0  0  0
    0.8211   -1.6507    4.4610 H   0  0  0  0  0  0  0  0  0  0  0  0
    1.8152   -0.5940    5.4491 H   0  0  0  0  0  0  0  0  0  0  0  0
   -6.3835   -0.2990    7.5467 H   0  0  0  0  0  0  0  0  0  0  0  0
   -6.1165    2.4399    4.0648 H   0  0  0  0  0  0  0  0  0  0  0  0
   -2.6865    4.9067    3.3089 H   0  0  0  0  0  0  0  0  0  0  0  0
    5.2567    1.5824    9.4410 H   0  0  0  0  0  0  0  0  0  0  0  0
    4.5908   -5.2170    5.9552 H   0  0  0  0  0  0  0  0  0  0  0  0
    6.1415   -1.1971    5.9349 H   0  0  0  0  0  0  0  0  0  0  0  0
    1.9986   -6.4994    9.5606 H   0  0  0  0  0  0  0  0  0  0  0  0
    1.1908    4.3242    5.2158 H   0  0  0  0  0  0  0  0  0  0  0  0
   -1.2515   -3.9706   10.6335 H   0  0  0  0  0  0  0  0  0  0  0  0
    1.2291    1.7675   10.8944 H   0  0  0  0  0  0  0  0  0  0  0  0
    2.2386    0.8088    7.3749 H   0  0  0  0  0  0  0  0  0  0  0  0
   -3.3411   -0.6284   10.5390 H   0  0  0  0  0  0  0  0  0  0  0  0
  1  2  4  0  0  0  0
  2  3  4  0  0  0  0
  3  4  1  0  0  0  0
  4  5  4  0  0  0  0
  1  6  4  0  0  0  0
  5  6  2  0  0  0  0
  3  7  4  0  0  0  0
  7  8  4  0  0  0  0
  8  9  1  0  0  0  0
  4 10  4  0  0  0  0
  9 10  4  0  0  0  0
  7 11  4  0  0  0  0
 11 12  1  0  0  0  0
 12 13  4  0  0  0  0
  8 14  1  0  0  0  0
 13 14  4  0  0  0  0
 14 15  4  0  0  0  0
 15 16  4  0  0  0  0
  9 17  4  0  0  0  0
 16 17  4  0  0  0  0
 11 18  4  0  0  0  0
 18 19  4  0  0  0  0
 19 20  4  0  0  0  0
 12 21  1  0  0  0  0
 20 21  2  0  0  0  0
  2 22  1  0  0  0  0
 23 24  4  0  0  0  0
 24 25  4  0  0  0  0
 25 26  4  0  0  0  0
 26 27  4  0  0  0  0
 23 28  4  0  0  0  0
 27 28  2  0  0  0  0
 25 29  4  0  0  0  0
 29 30  4  0  0  0  0
 30 31  1  0  0  0  0
 26 32  4  0  0  0  0
 31 32  4  0  0  0  0
 29 33  4  0  0  0  0
 33 34  1  0  0  0  0
 34 35  4  0  0  0  0
 30 36  1  0  0  0  0
 35 36  4  0  0  0  0
 36 37  4  0  0  0  0
 37 38  4  0  0  0  0
 31 39  4  0  0  0  0
 38 39  4  0  0  0  0
 33 40  4  0  0  0  0
 40 41  4  0  0  0  0
 41 42  4  0  0  0  0
 34 43  4  0  0  0  0
 42 43  2  0  0  0  0
 24 44  1  0  0  0  0
 22 45  1  0  0  0  0
 44 45  1  0  0  0  0
 18 46  1  0  0  0  0
 45 46  1  0  0  0  0
 46 48  1  0  0  0  0
 47 48  1  0  0  0  0
 40 49  1  0  0  0  0
 45 49  1  0  0  0  0
 49 51  1  0  0  0  0
 50 51  1  0  0  0  0
 38 52  1  0  0  0  0
 52 53  1  0  0  0  0
 52 54  1  0  0  0  0
 52 55  1  0  0  0  0
 52 56  1  0  0  0  0
 52 57  1  0  0  0  0
 42 58  1  0  0  0  0
 58 59  1  0  0  0  0
 58 60  1  0  0  0  0
 58 61  1  0  0  0  0
 58 62  1  0  0  0  0
 58 63  1  0  0  0  0
 28 64  1  0  0  0  0
 64 65  1  0  0  0  0
 64 66  1  0  0  0  0
 64 67  1  0  0  0  0
 64 68  1  0  0  0  0
 64 69  1  0  0  0  0
 20 70  1  0  0  0  0
 70 71  1  0  0  0  0
 70 72  1  0  0  0  0
 70 73  1  0  0  0  0
 70 74  1  0  0  0  0
 70 75  1  0  0  0  0
 16 76  1  0  0  0  0
 76 77  1  0  0  0  0
 76 78  1  0  0  0  0
 76 79  1  0  0  0  0
 76 80  1  0  0  0  0
 76 81  1  0  0  0  0
  6 82  1  0  0  0  0
 82 83  1  0  0  0  0
 82 84  1  0  0  0  0
 82 85  1  0  0  0  0
 82 86  1  0  0  0  0
 82 87  1  0  0  0  0
 47 88  1  0  0  0  0
 47 89  1  0  0  0  0
 47 90  1  0  0  0  0
 48 91  1  0  0  0  0
 48 92  1  0  0  0  0
 51 93  1  0  0  0  0
 51 94  1  0  0  0  0
 50 95  1  0  0  0  0
 50 96  1  0  0  0  0
 50 97  1  0  0  0  0
 27 98  1  0  0  0  0
 39 99  1  0  0  0  0
 37100  1  0  0  0  0
  5101  1  0  0  0  0
 15102  1  0  0  0  0
 17103  1  0  0  0  0
 21104  1  0  0  0  0
 43105  1  0  0  0  0
 19106  1  0  0  0  0
  1107  1  0  0  0  0
 41108  1  0  0  0  0
 23109  1  0  0  0  0
110111  4  0  0  0  0
111112  4  0  0  0  0
112113  1  0  0  0  0
113114  4  0  0  0  0
110115  4  0  0  0  0
114115  2  0  0  0  0
112116  4  0  0  0  0
116117  4  0  0  0  0
117118  1  0  0  0  0
113119  4  0  0  0  0
118119  4  0  0  0  0
116120  4  0  0  0  0
120121  1  0  0  0  0
121122  4  0  0  0  0
117123  1  0  0  0  0
122123  4  0  0  0  0
123124  4  0  0  0  0
124125  4  0  0  0  0
118126  4  0  0  0  0
125126  4  0  0  0  0
120127  4  0  0  0  0
127128  4  0  0  0  0
128129  4  0  0  0  0
121130  1  0  0  0  0
129130  2  0  0  0  0
111131  1  0  0  0  0
132133  4  0  0  0  0
133134  4  0  0  0  0
134135  1  0  0  0  0
135136  4  0  0  0  0
132137  4  0  0  0  0
136137  2  0  0  0  0
134138  4  0  0  0  0
138139  4  0  0  0  0
139140  1  0  0  0  0
135141  4  0  0  0  0
140141  4  0  0  0  0
138142  1  0  0  0  0
142143  1  0  0  0  0
143144  4  0  0  0  0
139145  1  0  0  0  0
144145  4  0  0  0  0
145146  4  0  0  0  0
146147  4  0  0  0  0
140148  4  0  0  0  0
147148  4  0  0  0  0
142149  4  0  0  0  0
149150  4  0  0  0  0
150151  4  0  0  0  0
143152  4  0  0  0  0
151152  2  0  0  0  0
133153  1  0  0  0  0
131154  1  0  0  0  0
153154  1  0  0  0  0
127155  4  0  0  0  0
154155  1  0  0  0  0
155157  1  0  0  0  0
156157  1  0  0  0  0
149158  1  0  0  0  0
154158  1  0  0  0  0
158160  1  0  0  0  0
159160  1  0  0  0  0
147161  1  0  0  0  0
161162  1  0  0  0  0
161163  1  0  0  0  0
161164  1  0  0  0  0
161165  1  0  0  0  0
161166  1  0  0  0  0
151167  1  0  0  0  0
167168  1  0  0  0  0
167169  1  0  0  0  0
167170  1  0  0  0  0
167171  1  0  0  0  0
167172  1  0  0  0  0
137173  1  0  0  0  0
173174  1  0  0  0  0
173175  1  0  0  0  0
173176  1  0  0  0  0
173177  1  0  0  0  0
173178  1  0  0  0  0
129179  1  0  0  0  0
179180  1  0  0  0  0
179181  1  0  0  0  0
179182  1  0  0  0  0
179183  1  0  0  0  0
179184  1  0  0  0  0
125185  1  0  0  0  0
185186  1  0  0  0  0
185187  1  0  0  0  0
185188  1  0  0  0  0
185189  1  0  0  0  0
185190  1  0  0  0  0
115191  1  0  0  0  0
191192  1  0  0  0  0
191193  1  0  0  0  0
191194  1  0  0  0  0
191195  1  0  0  0  0
191196  1  0  0  0  0
156197  1  0  0  0  0
156198  1  0  0  0  0
156199  1  0  0  0  0
157200  1  0  0  0  0
157201  1  0  0  0  0
160202  1  0  0  0  0
160203  1  0  0  0  0
159204  1  0  0  0  0
159205  1  0  0  0  0
159206  1  0  0  0  0
136207  1  0  0  0  0
148208  1  0  0  0  0
146209  1  0  0  0  0
114210  1  0  0  0  0
124211  1  0  0  0  0
126212  1  0  0  0  0
130213  1  0  0  0  0
152214  1  0  0  0  0
128215  1  0  0  0  0
110216  1  0  0  0  0
150217  1  0  0  0  0
132218  1  0  0  0  0
M  CHG  1   8   1
M  CHG  1  45  -1
M  CHG  1 117   1
M  CHG  1 154  -1
M  END
