 energy: -289.682252365810 gnorm: 0.000401720677 xtb: 6.6.1 (8d0f1dd)
          11072416333D

109120  0     0  0            999 V2000
    1.9471    1.5300    1.8992 C   0  0  0  0  0  0  0  0  0  0  0  0
    1.8655    0.2184    1.4282 C   0  0  0  0  0  0  0  0  0  0  0  0
    3.0371   -0.4836    1.0490 C   0  0  0  0  0  0  0  0  0  0  0  0
    4.2577    0.2874    1.0179 C   0  0  0  0  0  0  0  0  0  0  0  0
    4.2922    1.6474    1.4433 C   0  0  0  0  0  0  0  0  0  0  0  0
    3.1545    2.2008    1.9352 C   0  0  0  0  0  0  0  0  0  0  0  0
    3.1154   -1.9138    0.8854 C   0  0  0  0  0  0  0  0  0  0  0  0
    4.4392   -2.4151    0.8018 C   0  0  0  0  0  0  0  0  0  0  0  0
    5.5505   -1.5397    0.5916 C   0  0  0  0  0  0  0  0  0  0  0  0
    5.4321   -0.2265    0.6808 N   0  0  0  0  0  0  0  0  0  0  0  0
    2.0609   -2.9140    0.9681 C   0  0  0  0  0  0  0  0  0  0  0  0
    2.5158   -4.1924    1.4884 C   0  0  0  0  0  0  0  0  0  0  0  0
    3.7752   -4.5935    1.4849 N   0  0  0  0  0  0  0  0  0  0  0  0
    4.7184   -3.7968    1.0098 C   0  0  0  0  0  0  0  0  0  0  0  0
    6.0288   -4.3039    0.8351 C   0  0  0  0  0  0  0  0  0  0  0  0
    7.0338   -3.4384    0.4763 C   0  0  0  0  0  0  0  0  0  0  0  0
    6.8404   -2.0849    0.3589 C   0  0  0  0  0  0  0  0  0  0  0  0
    0.6946   -2.9022    0.5345 C   0  0  0  0  0  0  0  0  0  0  0  0
   -0.1287   -3.9845    0.8828 C   0  0  0  0  0  0  0  0  0  0  0  0
    0.2986   -5.0441    1.6524 C   0  0  0  0  0  0  0  0  0  0  0  0
    1.6135   -5.1973    1.9467 C   0  0  0  0  0  0  0  0  0  0  0  0
    0.6796   -0.3556    1.4348 O   0  0  0  0  0  0  0  0  0  0  0  0
   -3.2002   -1.9295    0.4711 C   0  0  0  0  0  0  0  0  0  0  0  0
   -2.6329   -0.6611    0.2688 C   0  0  0  0  0  0  0  0  0  0  0  0
   -3.3191    0.3097   -0.4969 C   0  0  0  0  0  0  0  0  0  0  0  0
   -4.5970   -0.0916   -1.0363 C   0  0  0  0  0  0  0  0  0  0  0  0
   -5.0248   -1.4529   -1.0011 C   0  0  0  0  0  0  0  0  0  0  0  0
   -4.3389   -2.3175   -0.2141 C   0  0  0  0  0  0  0  0  0  0  0  0
   -2.9475    1.7058   -0.5914 C   0  0  0  0  0  0  0  0  0  0  0  0
   -4.0564    2.5603   -0.8334 C   0  0  0  0  0  0  0  0  0  0  0  0
   -5.3133    2.0490   -1.2800 C   0  0  0  0  0  0  0  0  0  0  0  0
   -5.5083    0.7534   -1.4840 N   0  0  0  0  0  0  0  0  0  0  0  0
   -1.6543    2.3472   -0.4619 C   0  0  0  0  0  0  0  0  0  0  0  0
   -1.7014    3.7901   -0.2935 C   0  0  0  0  0  0  0  0  0  0  0  0
   -2.8101    4.5140   -0.2656 N   0  0  0  0  0  0  0  0  0  0  0  0
   -3.9592    3.9632   -0.6092 C   0  0  0  0  0  0  0  0  0  0  0  0
   -5.0943    4.8015   -0.7529 C   0  0  0  0  0  0  0  0  0  0  0  0
   -6.2709    4.2604   -1.2035 C   0  0  0  0  0  0  0  0  0  0  0  0
   -6.4031    2.9255   -1.5015 C   0  0  0  0  0  0  0  0  0  0  0  0
   -0.3426    1.7938   -0.6674 C   0  0  0  0  0  0  0  0  0  0  0  0
    0.7399    2.6894   -0.7672 C   0  0  0  0  0  0  0  0  0  0  0  0
    0.6361    4.0514   -0.6237 C   0  0  0  0  0  0  0  0  0  0  0  0
   -0.5473    4.6285   -0.3101 C   0  0  0  0  0  0  0  0  0  0  0  0
   -1.4988   -0.4012    0.8884 O   0  0  0  0  0  0  0  0  0  0  0  0
   -0.1905   -0.5396    0.3074 B   0  0  0  0  0  0  0  0  0  0  0  0
    0.1032   -1.9489   -0.2721 N   0  0  0  0  0  0  0  0  0  0  0  0
   -0.1183   -3.4893   -2.2164 C   0  0  0  0  0  0  0  0  0  0  0  0
   -0.7574   -2.4183   -1.3361 C   0  0  0  0  0  0  0  0  0  0  0  0
   -0.0238    0.4692   -0.8621 N   0  0  0  0  0  0  0  0  0  0  0  0
    0.8533    0.7982   -3.1621 C   0  0  0  0  0  0  0  0  0  0  0  0
    1.0751    0.1869   -1.7824 C   0  0  0  0  0  0  0  0  0  0  0  0
   -7.7472    5.3722   -1.4067 S   0  0  0  0  0  0  0  0  0  0  0  0
   -6.8249    6.5205   -2.1385 F   0  0  0  0  0  0  0  0  0  0  0  0
   -7.4563    6.0748    0.0511 F   0  0  0  0  0  0  0  0  0  0  0  0
   -9.0130    6.3232   -1.5789 F   0  0  0  0  0  0  0  0  0  0  0  0
   -8.0888    4.7060   -2.8716 F   0  0  0  0  0  0  0  0  0  0  0  0
   -8.7206    4.2619   -0.6817 F   0  0  0  0  0  0  0  0  0  0  0  0
    2.1508    5.0115   -1.1108 S   0  0  0  0  0  0  0  0  0  0  0  0
    3.1344    3.8653   -0.3874 F   0  0  0  0  0  0  0  0  0  0  0  0
    2.1501    6.0156    0.1633 F   0  0  0  0  0  0  0  0  0  0  0  0
    3.4749    5.7345   -1.6308 F   0  0  0  0  0  0  0  0  0  0  0  0
    1.2380    6.0961   -1.9490 F   0  0  0  0  0  0  0  0  0  0  0  0
    2.2263    4.0740   -2.4984 F   0  0  0  0  0  0  0  0  0  0  0  0
   -4.8242   -4.1031   -0.0791 S   0  0  0  0  0  0  0  0  0  0  0  0
   -6.4203   -3.7491    0.0278 F   0  0  0  0  0  0  0  0  0  0  0  0
   -4.6806   -4.0739    1.5508 F   0  0  0  0  0  0  0  0  0  0  0  0
   -5.1696   -5.6524   -0.0003 F   0  0  0  0  0  0  0  0  0  0  0  0
   -3.2125   -4.5165   -0.2353 F   0  0  0  0  0  0  0  0  0  0  0  0
   -4.9564   -4.1968   -1.7254 F   0  0  0  0  0  0  0  0  0  0  0  0
   -1.0008   -6.2615    2.1734 S   0  0  0  0  0  0  0  0  0  0  0  0
   -1.4546   -6.4759    0.6068 F   0  0  0  0  0  0  0  0  0  0  0  0
   -2.0995   -5.0377    2.3504 F   0  0  0  0  0  0  0  0  0  0  0  0
   -2.1317   -7.2877    2.6176 F   0  0  0  0  0  0  0  0  0  0  0  0
   -0.5683   -6.0877    3.7510 F   0  0  0  0  0  0  0  0  0  0  0  0
    0.0478   -7.5208    2.0338 F   0  0  0  0  0  0  0  0  0  0  0  0
    8.7382   -4.1241    0.1899 S   0  0  0  0  0  0  0  0  0  0  0  0
    8.1153   -5.3625   -0.7003 F   0  0  0  0  0  0  0  0  0  0  0  0
    8.6354   -5.0522    1.5426 F   0  0  0  0  0  0  0  0  0  0  0  0
   10.1943   -4.7149   -0.0698 F   0  0  0  0  0  0  0  0  0  0  0  0
    8.8969   -3.2209   -1.1779 F   0  0  0  0  0  0  0  0  0  0  0  0
    9.4195   -2.9112    1.0644 F   0  0  0  0  0  0  0  0  0  0  0  0
    3.1211    3.8624    2.7553 S   0  0  0  0  0  0  0  0  0  0  0  0
    4.3817    3.4774    3.7372 F   0  0  0  0  0  0  0  0  0  0  0  0
    2.9890    5.2856    3.4651 F   0  0  0  0  0  0  0  0  0  0  0  0
    1.7719    4.2578    1.8320 F   0  0  0  0  0  0  0  0  0  0  0  0
    4.1740    4.5478    1.7155 F   0  0  0  0  0  0  0  0  0  0  0  0
    2.0828    3.2839    3.9114 F   0  0  0  0  0  0  0  0  0  0  0  0
   -0.7752   -3.6869   -3.0580 H   0  0  0  0  0  0  0  0  0  0  0  0
    0.0202   -4.4210   -1.6766 H   0  0  0  0  0  0  0  0  0  0  0  0
    0.8436   -3.1536   -2.5983 H   0  0  0  0  0  0  0  0  0  0  0  0
   -1.0147   -1.5381   -1.9301 H   0  0  0  0  0  0  0  0  0  0  0  0
   -1.7053   -2.8190   -0.9495 H   0  0  0  0  0  0  0  0  0  0  0  0
    1.1254   -0.8981   -1.8660 H   0  0  0  0  0  0  0  0  0  0  0  0
    2.0483    0.4983   -1.3826 H   0  0  0  0  0  0  0  0  0  0  0  0
   -0.1361    0.5421   -3.5328 H   0  0  0  0  0  0  0  0  0  0  0  0
    1.5926    0.3967   -3.8491 H   0  0  0  0  0  0  0  0  0  0  0  0
    0.9563    1.8793   -3.1567 H   0  0  0  0  0  0  0  0  0  0  0  0
   -5.9346   -1.7196   -1.5126 H   0  0  0  0  0  0  0  0  0  0  0  0
   -7.3294    2.5151   -1.8720 H   0  0  0  0  0  0  0  0  0  0  0  0
   -4.9986    5.8503   -0.5193 H   0  0  0  0  0  0  0  0  0  0  0  0
    5.2345    2.1683    1.4226 H   0  0  0  0  0  0  0  0  0  0  0  0
    6.2116   -5.3541    0.9983 H   0  0  0  0  0  0  0  0  0  0  0  0
    7.6515   -1.4128    0.1261 H   0  0  0  0  0  0  0  0  0  0  0  0
    2.0204   -6.0690    2.4319 H   0  0  0  0  0  0  0  0  0  0  0  0
   -0.6842    5.6890   -0.1843 H   0  0  0  0  0  0  0  0  0  0  0  0
   -1.1587   -3.9880    0.5767 H   0  0  0  0  0  0  0  0  0  0  0  0
    1.0461    1.9911    2.2664 H   0  0  0  0  0  0  0  0  0  0  0  0
    1.7239    2.3009   -0.9465 H   0  0  0  0  0  0  0  0  0  0  0  0
   -2.7465   -2.5892    1.1944 H   0  0  0  0  0  0  0  0  0  0  0  0
  1  2  2  0  0  0  0
  1107  1  0  0  0  0
  2  3  1  0  0  0  0
  3  4  2  0  0  0  0
  3  7  1  0  0  0  0
  4  5  1  0  0  0  0
  5  6  2  0  0  0  0
  5101  1  0  0  0  0
  6  1  1  0  0  0  0
  6 82  1  0  0  0  0
  7  8  1  0  0  0  0
  7 11  2  0  0  0  0
  8  9  1  0  0  0  0
  9 10  2  0  0  0  0
 10  4  1  0  0  0  0
 11 12  1  0  0  0  0
 11 18  1  0  0  0  0
 12 13  2  0  0  0  0
 13 14  1  0  0  0  0
 14  8  1  0  0  0  0
 14 15  2  0  0  0  0
 15 16  1  0  0  0  0
 15102  1  0  0  0  0
 16 76  1  0  0  0  0
 16 17  2  0  0  0  0
 17  9  1  0  0  0  0
 17103  1  0  0  0  0
 18 46  1  0  0  0  0
 18 19  2  0  0  0  0
 19 20  1  0  0  0  0
 19106  1  0  0  0  0
 20 70  1  0  0  0  0
 20 21  2  0  0  0  0
 21 12  1  0  0  0  0
 21104  1  0  0  0  0
 22  2  1  0  0  0  0
 23 24  2  0  0  0  0
 23109  1  0  0  0  0
 24 25  1  0  0  0  0
 24 44  1  0  0  0  0
 25 26  2  0  0  0  0
 25 29  1  0  0  0  0
 26 27  1  0  0  0  0
 27 28  2  0  0  0  0
 27 98  1  0  0  0  0
 28 64  1  0  0  0  0
 28 23  1  0  0  0  0
 29 33  2  0  0  0  0
 30 29  1  0  0  0  0
 30 31  1  0  0  0  0
 31 32  2  0  0  0  0
 32 26  1  0  0  0  0
 33 34  1  0  0  0  0
 33 40  1  0  0  0  0
 34 35  2  0  0  0  0
 35 36  1  0  0  0  0
 36 30  1  0  0  0  0
 36 37  2  0  0  0  0
 37 38  1  0  0  0  0
 37100  1  0  0  0  0
 38 52  1  0  0  0  0
 38 39  2  0  0  0  0
 39 31  1  0  0  0  0
 39 99  1  0  0  0  0
 40 49  1  0  0  0  0
 40 41  2  0  0  0  0
 41 42  1  0  0  0  0
 41108  1  0  0  0  0
 42 58  1  0  0  0  0
 42 43  2  0  0  0  0
 43 34  1  0  0  0  0
 43105  1  0  0  0  0
 45 46  1  0  0  0  0
 45 49  1  0  0  0  0
 45 22  1  0  0  0  0
 45 44  1  0  0  0  0
 46 48  1  0  0  0  0
 47 48  1  0  0  0  0
 47 88  1  0  0  0  0
 47 89  1  0  0  0  0
 47 90  1  0  0  0  0
 48 91  1  0  0  0  0
 48 92  1  0  0  0  0
 49 51  1  0  0  0  0
 50 51  1  0  0  0  0
 50 95  1  0  0  0  0
 50 96  1  0  0  0  0
 50 97  1  0  0  0  0
 51 93  1  0  0  0  0
 51 94  1  0  0  0  0
 52 53  1  0  0  0  0
 52 54  1  0  0  0  0
 52 55  1  0  0  0  0
 52 56  1  0  0  0  0
 52 57  1  0  0  0  0
 58 59  1  0  0  0  0
 58 60  1  0  0  0  0
 58 61  1  0  0  0  0
 58 62  1  0  0  0  0
 58 63  1  0  0  0  0
 64 65  1  0  0  0  0
 64 66  1  0  0  0  0
 64 67  1  0  0  0  0
 64 68  1  0  0  0  0
 64 69  1  0  0  0  0
 70 71  1  0  0  0  0
 70 72  1  0  0  0  0
 70 73  1  0  0  0  0
 70 74  1  0  0  0  0
 70 75  1  0  0  0  0
 76 77  1  0  0  0  0
 76 78  1  0  0  0  0
 76 79  1  0  0  0  0
 76 80  1  0  0  0  0
 76 81  1  0  0  0  0
 82 83  1  0  0  0  0
 82 84  1  0  0  0  0
 82 85  1  0  0  0  0
 82 86  1  0  0  0  0
 82 87  1  0  0  0  0
M  CHG  1   1   1
M  END
