energy: -290.158082662217 gnorm: 0.000209403411 xtb: 6.6.1 (8d0f1dd)_energy: -290.158082662217 gnorm: 0.000209403411 xtb: 6.6.1 (8d0f1dd)
 OpenBabel11072416353D

218240  0  0  0  0  0  0  0  0999 V2000
    1.9469    1.5141    1.9636 C   0  0  0  0  0  0  0  0  0  0  0  0
    1.8553    0.2088    1.4815 C   0  0  0  0  0  0  0  0  0  0  0  0
    3.0198   -0.4872    1.0650 C   0  0  0  0  0  0  0  0  0  0  0  0
    4.2368    0.2820    1.0023 C   0  0  0  0  0  0  0  0  0  0  0  0
    4.2838    1.6329    1.4502 C   0  0  0  0  0  0  0  0  0  0  0  0
    3.1591    2.1744    1.9784 C   0  0  0  0  0  0  0  0  0  0  0  0
    3.0969   -1.9154    0.8896 C   0  0  0  0  0  0  0  0  0  0  0  0
    4.4167   -2.4152    0.7607 C   0  3  0  0  0  0  0  0  0  0  0  0
    5.5157   -1.5364    0.5056 C   0  0  0  0  0  0  0  0  0  0  0  0
    5.4004   -0.2229    0.6081 N   0  0  0  0  0  0  0  0  0  0  0  0
    2.0476   -2.9166    0.9982 C   0  0  0  0  0  0  0  0  0  0  0  0
    2.5143   -4.1933    1.5014 C   0  0  0  0  0  0  0  0  0  0  0  0
    3.7752   -4.5968    1.4677 N   0  0  0  0  0  0  0  0  0  0  0  0
    4.7007   -3.7978    0.9588 C   0  0  0  0  0  0  0  0  0  0  0  0
    5.9985   -4.3053    0.7203 C   0  0  0  0  0  0  0  0  0  0  0  0
    6.9779   -3.4335    0.3166 C   0  0  0  0  0  0  0  0  0  0  0  0
    6.7922   -2.0807    0.2117 C   0  0  0  0  0  0  0  0  0  0  0  0
    0.6722   -2.8951    0.5974 C   0  0  0  0  0  0  0  0  0  0  0  0
   -0.1512   -3.9693    0.9636 C   0  0  0  0  0  0  0  0  0  0  0  0
    0.2995   -5.0275    1.7192 C   0  0  0  0  0  0  0  0  0  0  0  0
    1.6186   -5.1914    1.9819 C   0  0  0  0  0  0  0  0  0  0  0  0
    0.6695   -0.3655    1.5090 O   0  0  0  0  0  0  0  0  0  0  0  0
   -3.2000   -1.9164    0.5446 C   0  0  0  0  0  0  0  0  0  0  0  0
   -2.6352   -0.6535    0.3263 C   0  0  0  0  0  0  0  0  0  0  0  0
   -3.3125    0.3014   -0.4702 C   0  0  0  0  0  0  0  0  0  0  0  0
   -4.5679   -0.1137   -1.0418 C   0  0  0  0  0  0  0  0  0  0  0  0
   -4.9941   -1.4712   -0.9806 C   0  0  0  0  0  0  0  0  0  0  0  0
   -4.3233   -2.3110   -0.1559 C   0  0  0  0  0  0  0  0  0  0  0  0
   -2.9460    1.6972   -0.5740 C   0  0  0  0  0  0  0  0  0  0  0  0
   -4.0475    2.5424   -0.8705 C   0  0  1  0  0  0  0  0  0  0  0  0
   -5.2762    2.0164   -1.3759 C   0  0  0  0  0  0  0  0  0  0  0  0
   -5.4593    0.7166   -1.5638 N   0  0  0  0  0  0  0  0  0  0  0  0
   -1.6624    2.3487   -0.4043 C   0  0  0  0  0  0  0  0  0  0  0  0
   -1.7269    3.7872   -0.2327 C   0  0  0  0  0  0  0  0  0  0  0  0
   -2.8425    4.5058   -0.2385 N   0  0  0  0  0  0  0  0  0  0  0  0
   -3.9685    3.9464   -0.6444 C   0  0  0  0  0  0  0  0  0  0  0  0
   -5.0944    4.7780   -0.8614 C   0  0  0  0  0  0  0  0  0  0  0  0
   -6.2327    4.2202   -1.3792 C   0  0  0  0  0  0  0  0  0  0  0  0
   -6.3536    2.8860   -1.6700 C   0  0  0  0  0  0  0  0  0  0  0  0
   -0.3447    1.8014   -0.5813 C   0  0  0  0  0  0  0  0  0  0  0  0
    0.7370    2.6984   -0.6538 C   0  0  0  0  0  0  0  0  0  0  0  0
    0.6121    4.0567   -0.5031 C   0  0  0  0  0  0  0  0  0  0  0  0
   -0.5776    4.6296   -0.2141 C   0  0  0  0  0  0  0  0  0  0  0  0
   -1.5111   -0.3727    0.9579 O   0  0  0  0  0  0  0  0  0  0  0  0
   -0.2024   -0.5369    0.3717 B   0  5  2  0  0  0  0  0  0  0  0  0
    0.0861   -1.9392   -0.2105 N   0  0  0  0  0  0  0  0  0  0  0  0
   -0.0346   -3.4220   -2.1963 C   0  0  0  0  0  0  0  0  0  0  0  0
   -0.7510   -2.4186   -1.2941 C   0  0  0  0  0  0  0  0  0  0  0  0
   -0.0311    0.4778   -0.7914 N   0  0  0  0  0  0  0  0  0  0  0  0
    0.8430    0.8279   -3.0844 C   0  0  0  0  0  0  0  0  0  0  0  0
    1.0710    0.2061   -1.7101 C   0  0  0  0  0  0  0  0  0  0  0  0
   -7.6861    5.3227   -1.6940 S   0  0  0  0  0  0  0  0  0  0  0  0
   -6.7334    6.4794   -2.3937 F   0  0  0  0  0  0  0  0  0  0  0  0
   -7.5106    6.0708   -0.2301 F   0  0  0  0  0  0  0  0  0  0  0  0
   -8.9478    6.2784   -1.9676 F   0  0  0  0  0  0  0  0  0  0  0  0
   -7.9543    4.6439   -3.1789 F   0  0  0  0  0  0  0  0  0  0  0  0
   -8.7321    4.2359   -1.0156 F   0  0  0  0  0  0  0  0  0  0  0  0
    2.1079    5.0417   -0.9858 S   0  0  0  0  0  0  0  0  0  0  0  0
    3.1338    3.9196   -0.2859 F   0  0  0  0  0  0  0  0  0  0  0  0
    2.1060    6.0583    0.2905 F   0  0  0  0  0  0  0  0  0  0  0  0
    3.4191    5.8074   -1.5148 F   0  0  0  0  0  0  0  0  0  0  0  0
    1.1798    6.1350   -1.8200 F   0  0  0  0  0  0  0  0  0  0  0  0
    2.2007    4.1300   -2.3960 F   0  0  0  0  0  0  0  0  0  0  0  0
   -4.8295   -4.0820    0.0098 S   0  0  0  0  0  0  0  0  0  0  0  0
   -6.4363   -3.7120    0.1024 F   0  0  0  0  0  0  0  0  0  0  0  0
   -4.7103   -4.0407    1.6480 F   0  0  0  0  0  0  0  0  0  0  0  0
   -5.2195   -5.6309    0.1160 F   0  0  0  0  0  0  0  0  0  0  0  0
   -3.2333   -4.5476   -0.1297 F   0  0  0  0  0  0  0  0  0  0  0  0
   -4.9703   -4.2242   -1.6413 F   0  0  0  0  0  0  0  0  0  0  0  0
   -0.9754   -6.2443    2.2801 S   0  0  0  0  0  0  0  0  0  0  0  0
   -1.4721   -6.5106    0.7306 F   0  0  0  0  0  0  0  0  0  0  0  0
   -2.0998   -5.0466    2.4793 F   0  0  0  0  0  0  0  0  0  0  0  0
   -2.0828   -7.2917    2.7747 F   0  0  0  0  0  0  0  0  0  0  0  0
   -0.5140   -6.0600    3.8597 F   0  0  0  0  0  0  0  0  0  0  0  0
    0.0782   -7.5156    2.1423 F   0  0  0  0  0  0  0  0  0  0  0  0
    8.6566   -4.1200   -0.0545 S   0  0  0  0  0  0  0  0  0  0  0  0
    8.0076   -5.3652   -0.9332 F   0  0  0  0  0  0  0  0  0  0  0  0
    8.6400   -5.0728    1.2964 F   0  0  0  0  0  0  0  0  0  0  0  0
   10.1085   -4.7198   -0.3902 F   0  0  0  0  0  0  0  0  0  0  0  0
    8.7790   -3.2131   -1.4342 F   0  0  0  0  0  0  0  0  0  0  0  0
    9.4121   -2.9211    0.7954 F   0  0  0  0  0  0  0  0  0  0  0  0
    3.1618    3.8126    2.8365 S   0  0  0  0  0  0  0  0  0  0  0  0
    4.4383    3.3878    3.8021 F   0  0  0  0  0  0  0  0  0  0  0  0
    3.0757    5.2234    3.6019 F   0  0  0  0  0  0  0  0  0  0  0  0
    1.8064    4.2753    1.9589 F   0  0  0  0  0  0  0  0  0  0  0  0
    4.2260    4.5271    1.8157 F   0  0  0  0  0  0  0  0  0  0  0  0
    2.1354    3.2314    4.0116 F   0  0  0  0  0  0  0  0  0  0  0  0
   -0.6795   -3.6615   -3.0363 H   0  0  0  0  0  0  0  0  0  0  0  0
    0.1807   -4.3429   -1.6624 H   0  0  0  0  0  0  0  0  0  0  0  0
    0.8969   -3.0099   -2.5785 H   0  0  0  0  0  0  0  0  0  0  0  0
   -1.0457   -1.5353   -1.8645 H   0  0  0  0  0  0  0  0  0  0  0  0
   -1.6730   -2.8883   -0.9336 H   0  0  0  0  0  0  0  0  0  0  0  0
    1.1228   -0.8774   -1.8019 H   0  0  0  0  0  0  0  0  0  0  0  0
    2.0434    0.5196   -1.3101 H   0  0  0  0  0  0  0  0  0  0  0  0
   -0.1478    0.5715   -3.4514 H   0  0  0  0  0  0  0  0  0  0  0  0
    1.5815    0.4367   -3.7783 H   0  0  0  0  0  0  0  0  0  0  0  0
    0.9397    1.9094   -3.0644 H   0  0  0  0  0  0  0  0  0  0  0  0
   -5.8892   -1.7550   -1.5059 H   0  0  0  0  0  0  0  0  0  0  0  0
   -7.2578    2.4705   -2.0813 H   0  0  0  0  0  0  0  0  0  0  0  0
   -5.0182    5.8286   -0.6383 H   0  0  0  0  0  0  0  0  0  0  0  0
    5.2238    2.1549    1.4141 H   0  0  0  0  0  0  0  0  0  0  0  0
    6.1900   -5.3545    0.8667 H   0  0  0  0  0  0  0  0  0  0  0  0
    7.5947   -1.4120   -0.0495 H   0  0  0  0  0  0  0  0  0  0  0  0
    2.0304   -6.0652    2.4558 H   0  0  0  0  0  0  0  0  0  0  0  0
   -0.7221    5.6889   -0.0974 H   0  0  0  0  0  0  0  0  0  0  0  0
   -1.1862   -3.9689    0.6785 H   0  0  0  0  0  0  0  0  0  0  0  0
    1.0554    1.9751    2.3516 H   0  0  0  0  0  0  0  0  0  0  0  0
    1.7249    2.3181   -0.8264 H   0  0  0  0  0  0  0  0  0  0  0  0
   -2.7471   -2.5679    1.2739 H   0  0  0  0  0  0  0  0  0  0  0  0
    1.9469    1.5141   11.9636 C   0  0  0  0  0  0  0  0  0  0  0  0
    1.8553    0.2088   11.4815 C   0  0  0  0  0  0  0  0  0  0  0  0
    3.0198   -0.4872   11.0650 C   0  0  0  0  0  0  0  0  0  0  0  0
    4.2368    0.2820   11.0023 C   0  0  0  0  0  0  0  0  0  0  0  0
    4.2838    1.6329   11.4502 C   0  0  0  0  0  0  0  0  0  0  0  0
    3.1591    2.1744   11.9784 C   0  0  0  0  0  0  0  0  0  0  0  0
    3.0969   -1.9154   10.8896 C   0  0  0  0  0  0  0  0  0  0  0  0
    4.4167   -2.4152   10.7607 C   0  3  0  0  0  0  0  0  0  0  0  0
    5.5157   -1.5364   10.5056 C   0  0  0  0  0  0  0  0  0  0  0  0
    5.4004   -0.2229   10.6081 N   0  0  0  0  0  0  0  0  0  0  0  0
    2.0476   -2.9166   10.9982 C   0  0  0  0  0  0  0  0  0  0  0  0
    2.5143   -4.1933   11.5014 C   0  0  0  0  0  0  0  0  0  0  0  0
    3.7752   -4.5968   11.4677 N   0  0  0  0  0  0  0  0  0  0  0  0
    4.7007   -3.7978   10.9588 C   0  0  0  0  0  0  0  0  0  0  0  0
    5.9985   -4.3053   10.7203 C   0  0  0  0  0  0  0  0  0  0  0  0
    6.9779   -3.4335   10.3166 C   0  0  0  0  0  0  0  0  0  0  0  0
    6.7922   -2.0807   10.2117 C   0  0  0  0  0  0  0  0  0  0  0  0
    0.6722   -2.8951   10.5974 C   0  0  0  0  0  0  0  0  0  0  0  0
   -0.1512   -3.9693   10.9636 C   0  0  0  0  0  0  0  0  0  0  0  0
    0.2995   -5.0275   11.7192 C   0  0  0  0  0  0  0  0  0  0  0  0
    1.6186   -5.1914   11.9819 C   0  0  0  0  0  0  0  0  0  0  0  0
    0.6695   -0.3655   11.5090 O   0  0  0  0  0  0  0  0  0  0  0  0
   -3.2000   -1.9164   10.5446 C   0  0  0  0  0  0  0  0  0  0  0  0
   -2.6352   -0.6535   10.3263 C   0  0  0  0  0  0  0  0  0  0  0  0
   -3.3125    0.3014    9.5298 C   0  0  0  0  0  0  0  0  0  0  0  0
   -4.5679   -0.1137    8.9582 C   0  0  0  0  0  0  0  0  0  0  0  0
   -4.9941   -1.4712    9.0194 C   0  0  0  0  0  0  0  0  0  0  0  0
   -4.3233   -2.3110    9.8441 C   0  0  0  0  0  0  0  0  0  0  0  0
   -2.9460    1.6972    9.4260 C   0  0  0  0  0  0  0  0  0  0  0  0
   -4.0475    2.5424    9.1295 C   0  0  1  0  0  0  0  0  0  0  0  0
   -5.2762    2.0164    8.6241 C   0  0  0  0  0  0  0  0  0  0  0  0
   -5.4593    0.7166    8.4362 N   0  0  0  0  0  0  0  0  0  0  0  0
   -1.6624    2.3487    9.5957 C   0  0  0  0  0  0  0  0  0  0  0  0
   -1.7269    3.7872    9.7673 C   0  0  0  0  0  0  0  0  0  0  0  0
   -2.8425    4.5058    9.7615 N   0  0  0  0  0  0  0  0  0  0  0  0
   -3.9685    3.9464    9.3556 C   0  0  0  0  0  0  0  0  0  0  0  0
   -5.0944    4.7780    9.1386 C   0  0  0  0  0  0  0  0  0  0  0  0
   -6.2327    4.2202    8.6208 C   0  0  0  0  0  0  0  0  0  0  0  0
   -6.3536    2.8860    8.3300 C   0  0  0  0  0  0  0  0  0  0  0  0
   -0.3447    1.8014    9.4187 C   0  0  0  0  0  0  0  0  0  0  0  0
    0.7370    2.6984    9.3462 C   0  0  0  0  0  0  0  0  0  0  0  0
    0.6121    4.0567    9.4969 C   0  0  0  0  0  0  0  0  0  0  0  0
   -0.5776    4.6296    9.7859 C   0  0  0  0  0  0  0  0  0  0  0  0
   -1.5111   -0.3727   10.9579 O   0  0  0  0  0  0  0  0  0  0  0  0
   -0.2024   -0.5369   10.3717 B   0  5  2  0  0  0  0  0  0  0  0  0
    0.0861   -1.9392    9.7895 N   0  0  0  0  0  0  0  0  0  0  0  0
   -0.0346   -3.4220    7.8037 C   0  0  0  0  0  0  0  0  0  0  0  0
   -0.7510   -2.4186    8.7059 C   0  0  0  0  0  0  0  0  0  0  0  0
   -0.0311    0.4778    9.2086 N   0  0  0  0  0  0  0  0  0  0  0  0
    0.8430    0.8279    6.9156 C   0  0  0  0  0  0  0  0  0  0  0  0
    1.0710    0.2061    8.2899 C   0  0  0  0  0  0  0  0  0  0  0  0
   -7.6861    5.3227    8.3060 S   0  0  0  0  0  0  0  0  0  0  0  0
   -6.7334    6.4794    7.6063 F   0  0  0  0  0  0  0  0  0  0  0  0
   -7.5106    6.0708    9.7699 F   0  0  0  0  0  0  0  0  0  0  0  0
   -8.9478    6.2784    8.0324 F   0  0  0  0  0  0  0  0  0  0  0  0
   -7.9543    4.6439    6.8211 F   0  0  0  0  0  0  0  0  0  0  0  0
   -8.7321    4.2359    8.9844 F   0  0  0  0  0  0  0  0  0  0  0  0
    2.1079    5.0417    9.0142 S   0  0  0  0  0  0  0  0  0  0  0  0
    3.1338    3.9196    9.7141 F   0  0  0  0  0  0  0  0  0  0  0  0
    2.1060    6.0583   10.2905 F   0  0  0  0  0  0  0  0  0  0  0  0
    3.4191    5.8074    8.4852 F   0  0  0  0  0  0  0  0  0  0  0  0
    1.1798    6.1350    8.1800 F   0  0  0  0  0  0  0  0  0  0  0  0
    2.2007    4.1300    7.6040 F   0  0  0  0  0  0  0  0  0  0  0  0
   -4.8295   -4.0820   10.0098 S   0  0  0  0  0  0  0  0  0  0  0  0
   -6.4363   -3.7120   10.1024 F   0  0  0  0  0  0  0  0  0  0  0  0
   -4.7103   -4.0407   11.6480 F   0  0  0  0  0  0  0  0  0  0  0  0
   -5.2195   -5.6309   10.1160 F   0  0  0  0  0  0  0  0  0  0  0  0
   -3.2333   -4.5476    9.8703 F   0  0  0  0  0  0  0  0  0  0  0  0
   -4.9703   -4.2242    8.3587 F   0  0  0  0  0  0  0  0  0  0  0  0
   -0.9754   -6.2443   12.2801 S   0  0  0  0  0  0  0  0  0  0  0  0
   -1.4721   -6.5106   10.7306 F   0  0  0  0  0  0  0  0  0  0  0  0
   -2.0998   -5.0466   12.4793 F   0  0  0  0  0  0  0  0  0  0  0  0
   -2.0828   -7.2917   12.7747 F   0  0  0  0  0  0  0  0  0  0  0  0
   -0.5140   -6.0600   13.8597 F   0  0  0  0  0  0  0  0  0  0  0  0
    0.0782   -7.5156   12.1423 F   0  0  0  0  0  0  0  0  0  0  0  0
    8.6566   -4.1200    9.9455 S   0  0  0  0  0  0  0  0  0  0  0  0
    8.0076   -5.3652    9.0668 F   0  0  0  0  0  0  0  0  0  0  0  0
    8.6400   -5.0728   11.2964 F   0  0  0  0  0  0  0  0  0  0  0  0
   10.1085   -4.7198    9.6098 F   0  0  0  0  0  0  0  0  0  0  0  0
    8.7790   -3.2131    8.5658 F   0  0  0  0  0  0  0  0  0  0  0  0
    9.4121   -2.9211   10.7954 F   0  0  0  0  0  0  0  0  0  0  0  0
    3.1618    3.8126   12.8365 S   0  0  0  0  0  0  0  0  0  0  0  0
    4.4383    3.3878   13.8021 F   0  0  0  0  0  0  0  0  0  0  0  0
    3.0757    5.2234   13.6019 F   0  0  0  0  0  0  0  0  0  0  0  0
    1.8064    4.2753   11.9589 F   0  0  0  0  0  0  0  0  0  0  0  0
    4.2260    4.5271   11.8157 F   0  0  0  0  0  0  0  0  0  0  0  0
    2.1354    3.2314   14.0116 F   0  0  0  0  0  0  0  0  0  0  0  0
   -0.6795   -3.6615    6.9637 H   0  0  0  0  0  0  0  0  0  0  0  0
    0.1807   -4.3429    8.3376 H   0  0  0  0  0  0  0  0  0  0  0  0
    0.8969   -3.0099    7.4215 H   0  0  0  0  0  0  0  0  0  0  0  0
   -1.0457   -1.5353    8.1355 H   0  0  0  0  0  0  0  0  0  0  0  0
   -1.6730   -2.8883    9.0664 H   0  0  0  0  0  0  0  0  0  0  0  0
    1.1228   -0.8774    8.1981 H   0  0  0  0  0  0  0  0  0  0  0  0
    2.0434    0.5196    8.6899 H   0  0  0  0  0  0  0  0  0  0  0  0
   -0.1478    0.5715    6.5486 H   0  0  0  0  0  0  0  0  0  0  0  0
    1.5815    0.4367    6.2217 H   0  0  0  0  0  0  0  0  0  0  0  0
    0.9397    1.9094    6.9356 H   0  0  0  0  0  0  0  0  0  0  0  0
   -5.8892   -1.7550    8.4941 H   0  0  0  0  0  0  0  0  0  0  0  0
   -7.2578    2.4705    7.9187 H   0  0  0  0  0  0  0  0  0  0  0  0
   -5.0182    5.8286    9.3617 H   0  0  0  0  0  0  0  0  0  0  0  0
    5.2238    2.1549   11.4141 H   0  0  0  0  0  0  0  0  0  0  0  0
    6.1900   -5.3545   10.8667 H   0  0  0  0  0  0  0  0  0  0  0  0
    7.5947   -1.4120    9.9505 H   0  0  0  0  0  0  0  0  0  0  0  0
    2.0304   -6.0652   12.4558 H   0  0  0  0  0  0  0  0  0  0  0  0
   -0.7221    5.6889    9.9026 H   0  0  0  0  0  0  0  0  0  0  0  0
   -1.1862   -3.9689   10.6785 H   0  0  0  0  0  0  0  0  0  0  0  0
    1.0554    1.9751   12.3516 H   0  0  0  0  0  0  0  0  0  0  0  0
    1.7249    2.3181    9.1736 H   0  0  0  0  0  0  0  0  0  0  0  0
   -2.7471   -2.5679   11.2739 H   0  0  0  0  0  0  0  0  0  0  0  0
  1  2  2  0  0  0  0
  1107  1  0  0  0  0
  2  3  1  0  0  0  0
  3  4  2  0  0  0  0
  3  7  1  0  0  0  0
  4  5  1  0  0  0  0
  5  6  2  0  0  0  0
  5101  1  0  0  0  0
  6  1  1  0  0  0  0
  6 82  1  0  0  0  0
  7  8  1  0  0  0  0
  7 11  2  0  0  0  0
  8  9  1  0  0  0  0
  9 10  2  0  0  0  0
 10  4  1  0  0  0  0
 11 12  1  0  0  0  0
 11 18  1  0  0  0  0
 12 13  2  0  0  0  0
 13 14  1  0  0  0  0
 14  8  1  0  0  0  0
 14 15  2  0  0  0  0
 15 16  1  0  0  0  0
 15102  1  0  0  0  0
 16 76  1  0  0  0  0
 16 17  2  0  0  0  0
 17  9  1  0  0  0  0
 17103  1  0  0  0  0
 18 46  1  0  0  0  0
 18 19  2  0  0  0  0
 19 20  1  0  0  0  0
 19106  1  0  0  0  0
 20 70  1  0  0  0  0
 20 21  2  0  0  0  0
 21 12  1  0  0  0  0
 21104  1  0  0  0  0
 22  2  1  0  0  0  0
 23 24  2  0  0  0  0
 23109  1  0  0  0  0
 24 25  1  0  0  0  0
 24 44  1  0  0  0  0
 25 26  2  0  0  0  0
 25 29  1  0  0  0  0
 26 27  1  0  0  0  0
 27 28  2  0  0  0  0
 27 98  1  0  0  0  0
 28 64  1  0  0  0  0
 28 23  1  0  0  0  0
 29 33  2  0  0  0  0
 30 29  1  1  0  0  0
 30 31  1  0  0  0  0
 31 32  2  0  0  0  0
 32 26  1  0  0  0  0
 33 34  1  0  0  0  0
 33 40  1  0  0  0  0
 34 35  2  0  0  0  0
 35 36  1  0  0  0  0
 36 30  1  0  0  0  0
 36 37  2  0  0  0  0
 37 38  1  0  0  0  0
 37100  1  0  0  0  0
 38 52  1  0  0  0  0
 38 39  2  0  0  0  0
 39 31  1  0  0  0  0
 39 99  1  0  0  0  0
 40 49  1  0  0  0  0
 40 41  2  0  0  0  0
 41 42  1  0  0  0  0
 41108  1  0  0  0  0
 42 58  1  0  0  0  0
 42 43  2  0  0  0  0
 43 34  1  0  0  0  0
 43105  1  0  0  0  0
 45 46  1  0  0  0  0
 45 49  1  0  0  0  0
 45 22  1  1  0  0  0
 45 44  1  0  0  0  0
 46 48  1  0  0  0  0
 47 48  1  0  0  0  0
 47 88  1  0  0  0  0
 47 89  1  0  0  0  0
 47 90  1  0  0  0  0
 48 91  1  0  0  0  0
 48 92  1  0  0  0  0
 49 51  1  0  0  0  0
 50 51  1  0  0  0  0
 50 95  1  0  0  0  0
 50 96  1  0  0  0  0
 50 97  1  0  0  0  0
 51 93  1  0  0  0  0
 51 94  1  0  0  0  0
 52 53  1  0  0  0  0
 52 54  1  0  0  0  0
 52 55  1  0  0  0  0
 52 56  1  0  0  0  0
 52 57  1  0  0  0  0
 58 59  1  0  0  0  0
 58 60  1  0  0  0  0
 58 61  1  0  0  0  0
 58 62  1  0  0  0  0
 58 63  1  0  0  0  0
 64 65  1  0  0  0  0
 64 66  1  0  0  0  0
 64 67  1  0  0  0  0
 64 68  1  0  0  0  0
 64 69  1  0  0  0  0
 70 71  1  0  0  0  0
 70 72  1  0  0  0  0
 70 73  1  0  0  0  0
 70 74  1  0  0  0  0
 70 75  1  0  0  0  0
 76 77  1  0  0  0  0
 76 78  1  0  0  0  0
 76 79  1  0  0  0  0
 76 80  1  0  0  0  0
 76 81  1  0  0  0  0
 82 83  1  0  0  0  0
 82 84  1  0  0  0  0
 82 85  1  0  0  0  0
 82 86  1  0  0  0  0
 82 87  1  0  0  0  0
110111  2  0  0  0  0
110216  1  0  0  0  0
111112  1  0  0  0  0
112113  2  0  0  0  0
112116  1  0  0  0  0
113114  1  0  0  0  0
114115  2  0  0  0  0
114210  1  0  0  0  0
115110  1  0  0  0  0
115191  1  0  0  0  0
116117  1  0  0  0  0
116120  2  0  0  0  0
117118  1  0  0  0  0
118119  2  0  0  0  0
119113  1  0  0  0  0
120121  1  0  0  0  0
120127  1  0  0  0  0
121122  2  0  0  0  0
122123  1  0  0  0  0
123117  1  0  0  0  0
123124  2  0  0  0  0
124125  1  0  0  0  0
124211  1  0  0  0  0
125185  1  0  0  0  0
125126  2  0  0  0  0
126118  1  0  0  0  0
126212  1  0  0  0  0
127155  1  0  0  0  0
127128  2  0  0  0  0
128129  1  0  0  0  0
128215  1  0  0  0  0
129179  1  0  0  0  0
129130  2  0  0  0  0
130121  1  0  0  0  0
130213  1  0  0  0  0
131111  1  0  0  0  0
132133  2  0  0  0  0
132218  1  0  0  0  0
133134  1  0  0  0  0
133153  1  0  0  0  0
134135  2  0  0  0  0
134138  1  0  0  0  0
135136  1  0  0  0  0
136137  2  0  0  0  0
136207  1  0  0  0  0
137173  1  0  0  0  0
137132  1  0  0  0  0
138142  2  0  0  0  0
139138  1  1  0  0  0
139140  1  0  0  0  0
140141  2  0  0  0  0
141135  1  0  0  0  0
142143  1  0  0  0  0
142149  1  0  0  0  0
143144  2  0  0  0  0
144145  1  0  0  0  0
145139  1  0  0  0  0
145146  2  0  0  0  0
146147  1  0  0  0  0
146209  1  0  0  0  0
147161  1  0  0  0  0
147148  2  0  0  0  0
148140  1  0  0  0  0
148208  1  0  0  0  0
149158  1  0  0  0  0
149150  2  0  0  0  0
150151  1  0  0  0  0
150217  1  0  0  0  0
151167  1  0  0  0  0
151152  2  0  0  0  0
152143  1  0  0  0  0
152214  1  0  0  0  0
154155  1  0  0  0  0
154158  1  0  0  0  0
154131  1  1  0  0  0
154153  1  0  0  0  0
155157  1  0  0  0  0
156157  1  0  0  0  0
156197  1  0  0  0  0
156198  1  0  0  0  0
156199  1  0  0  0  0
157200  1  0  0  0  0
157201  1  0  0  0  0
158160  1  0  0  0  0
159160  1  0  0  0  0
159204  1  0  0  0  0
159205  1  0  0  0  0
159206  1  0  0  0  0
160202  1  0  0  0  0
160203  1  0  0  0  0
161162  1  0  0  0  0
161163  1  0  0  0  0
161164  1  0  0  0  0
161165  1  0  0  0  0
161166  1  0  0  0  0
167168  1  0  0  0  0
167169  1  0  0  0  0
167170  1  0  0  0  0
167171  1  0  0  0  0
167172  1  0  0  0  0
173174  1  0  0  0  0
173175  1  0  0  0  0
173176  1  0  0  0  0
173177  1  0  0  0  0
173178  1  0  0  0  0
179180  1  0  0  0  0
179181  1  0  0  0  0
179182  1  0  0  0  0
179183  1  0  0  0  0
179184  1  0  0  0  0
185186  1  0  0  0  0
185187  1  0  0  0  0
185188  1  0  0  0  0
185189  1  0  0  0  0
185190  1  0  0  0  0
191192  1  0  0  0  0
191193  1  0  0  0  0
191194  1  0  0  0  0
191195  1  0  0  0  0
191196  1  0  0  0  0
M  CHG  4   8   1  45  -1 117   1 154  -1
M  END
