 energy: -212.242982849441 gnorm: 0.000837389462 xtb: 6.7.1 (edcfbbe)
          03112512143D

115126  0     0  0            999 V2000
    0.0356    3.6507    2.3556 C   0  0  0  0  0  0  0  0  0  0  0  0
    0.5555    2.4201    1.9565 C   0  0  0  0  0  0  0  0  0  0  0  0
    1.8096    2.3807    1.2678 C   0  0  0  0  0  0  0  0  0  0  0  0
    2.3500    3.6411    0.8330 C   0  0  0  0  0  0  0  0  0  0  0  0
    1.6803    4.8512    1.1011 C   0  0  0  0  0  0  0  0  0  0  0  0
    0.5685    4.8640    1.9062 C   0  0  0  0  0  0  0  0  0  0  0  0
    2.6670    1.2379    1.1255 C   0  0  0  0  0  0  0  0  0  0  0  0
    4.0039    1.5043    0.7514 C   0  0  0  0  0  0  0  0  0  0  0  0
    4.3664    2.7700    0.2030 C   0  0  0  0  0  0  0  0  0  0  0  0
    3.5173    3.7903    0.2022 N   0  0  0  0  0  0  0  0  0  0  0  0
    2.3903   -0.1370    1.4495 C   0  0  0  0  0  0  0  0  0  0  0  0
    3.5234   -0.9230    1.8596 C   0  0  0  0  0  0  0  0  0  0  0  0
    4.7908   -0.5862    1.6292 N   0  0  0  0  0  0  0  0  0  0  0  0
    5.0308    0.5334    0.9488 C   0  0  0  0  0  0  0  0  0  0  0  0
    6.3345    0.7840    0.4887 C   0  0  0  0  0  0  0  0  0  0  0  0
    6.6320    1.9744   -0.1654 C   0  0  0  0  0  0  0  0  0  0  0  0
    5.6660    2.9614   -0.3050 C   0  0  0  0  0  0  0  0  0  0  0  0
    1.1633   -0.8299    1.2901 C   0  0  0  0  0  0  0  0  0  0  0  0
    1.0267   -2.1056    1.8231 C   0  0  0  0  0  0  0  0  0  0  0  0
    2.0762   -2.7435    2.4959 C   0  0  0  0  0  0  0  0  0  0  0  0
    3.3294   -2.1816    2.4646 C   0  0  0  0  0  0  0  0  0  0  0  0
   -0.1499    1.3368    2.2880 O   0  0  0  0  0  0  0  0  0  0  0  0
   -0.0578    6.1826    2.1635 C   0  0  0  0  0  0  0  0  0  0  0  0
    1.9051   -4.0198    3.2259 C   0  0  0  0  0  0  0  0  0  0  0  0
    7.9870    2.2430   -0.6957 C   0  0  0  0  0  0  0  0  0  0  0  0
   -2.3128   -2.4378    2.1077 C   0  0  0  0  0  0  0  0  0  0  0  0
   -2.5127   -1.2379    1.4287 C   0  0  0  0  0  0  0  0  0  0  0  0
   -3.3578   -1.2458    0.2692 C   0  0  0  0  0  0  0  0  0  0  0  0
   -3.6605   -2.5258   -0.3115 C   0  0  0  0  0  0  0  0  0  0  0  0
   -3.2210   -3.7190    0.2965 C   0  0  0  0  0  0  0  0  0  0  0  0
   -2.6618   -3.6732    1.5513 C   0  0  0  0  0  0  0  0  0  0  0  0
   -4.1014   -0.1333   -0.2407 C   0  0  0  0  0  0  0  0  0  0  0  0
   -5.1501   -0.4271   -1.1379 C   0  0  0  0  0  0  0  0  0  0  0  0
   -5.2076   -1.6978   -1.7811 C   0  0  0  0  0  0  0  0  0  0  0  0
   -4.4307   -2.7028   -1.3907 N   0  0  0  0  0  0  0  0  0  0  0  0
   -4.0374    1.2359    0.1845 C   0  0  0  0  0  0  0  0  0  0  0  0
   -5.2725    1.9697    0.1313 C   0  0  0  0  0  0  0  0  0  0  0  0
   -6.3048    1.6176   -0.6310 N   0  0  0  0  0  0  0  0  0  0  0  0
   -6.1910    0.5190   -1.3797 C   0  0  0  0  0  0  0  0  0  0  0  0
   -7.1567    0.2423   -2.3600 C   0  0  0  0  0  0  0  0  0  0  0  0
   -7.1054   -0.9431   -3.0882 C   0  0  0  0  0  0  0  0  0  0  0  0
   -6.1528   -1.9120   -2.8038 C   0  0  0  0  0  0  0  0  0  0  0  0
   -2.8781    1.9589    0.5461 C   0  0  0  0  0  0  0  0  0  0  0  0
   -3.0257    3.1830    1.1750 C   0  0  0  0  0  0  0  0  0  0  0  0
   -4.2895    3.7157    1.4617 C   0  0  0  0  0  0  0  0  0  0  0  0
   -5.4005    3.1680    0.8709 C   0  0  0  0  0  0  0  0  0  0  0  0
   -1.9539   -0.1515    1.9565 O   0  0  0  0  0  0  0  0  0  0  0  0
   -2.4565   -4.9176    2.3203 C   0  0  0  0  0  0  0  0  0  0  0  0
   -4.4273    4.8393    2.4185 C   0  0  0  0  0  0  0  0  0  0  0  0
   -8.1278   -1.1559   -4.1361 C   0  0  0  0  0  0  0  0  0  0  0  0
   -0.8955    0.5995    1.2388 B   0  0  0  0  0  0  0  0  0  0  0  0
    8.3208    3.2526   -1.2688 O   0  0  0  0  0  0  0  0  0  0  0  0
    8.8411    1.2244   -0.4778 O   0  0  0  0  0  0  0  0  0  0  0  0
   10.1583    1.4150   -0.9604 C   0  0  0  0  0  0  0  0  0  0  0  0
    0.6260   -4.2775    3.5262 O   0  0  0  0  0  0  0  0  0  0  0  0
    0.4088   -5.4128    4.3493 C   0  0  0  0  0  0  0  0  0  0  0  0
    2.8156   -4.7392    3.5669 O   0  0  0  0  0  0  0  0  0  0  0  0
   -2.5265   -5.0124    3.5226 O   0  0  0  0  0  0  0  0  0  0  0  0
   -2.2253   -5.9672    1.5114 O   0  0  0  0  0  0  0  0  0  0  0  0
   -2.0687   -7.2387    2.1159 C   0  0  0  0  0  0  0  0  0  0  0  0
   -9.0424   -0.4043   -4.3767 O   0  0  0  0  0  0  0  0  0  0  0  0
   -7.9352   -2.2973   -4.8259 O   0  0  0  0  0  0  0  0  0  0  0  0
   -8.8804   -2.5647   -5.8454 C   0  0  0  0  0  0  0  0  0  0  0  0
   -5.1698    5.7860    2.3090 O   0  0  0  0  0  0  0  0  0  0  0  0
   -3.6383    4.6228    3.4785 O   0  0  0  0  0  0  0  0  0  0  0  0
   -3.6930    5.5372    4.5598 C   0  0  0  0  0  0  0  0  0  0  0  0
    0.5492    7.2171    2.2994 O   0  0  0  0  0  0  0  0  0  0  0  0
   -1.4014    6.1299    2.1464 O   0  0  0  0  0  0  0  0  0  0  0  0
   -2.0575    7.3876    2.2162 C   0  0  0  0  0  0  0  0  0  0  0  0
    0.1253   -0.2856    0.5263 N   0  0  0  0  0  0  0  0  0  0  0  0
    0.8798   -1.2381   -1.6025 C   0  0  0  0  0  0  0  0  0  0  0  0
   -0.2718   -1.0877   -0.6072 C   0  0  0  0  0  0  0  0  0  0  0  0
   -1.6022    1.4825    0.2199 N   0  0  0  0  0  0  0  0  0  0  0  0
   -1.5703    2.3877   -2.0593 C   0  0  0  0  0  0  0  0  0  0  0  0
   -0.8669    2.3141   -0.7023 C   0  0  0  0  0  0  0  0  0  0  0  0
   -2.5668   -7.9654    1.4753 H   0  0  0  0  0  0  0  0  0  0  0  0
   -2.5138   -7.2388    3.1135 H   0  0  0  0  0  0  0  0  0  0  0  0
   -1.0063   -7.4796    2.1915 H   0  0  0  0  0  0  0  0  0  0  0  0
   -0.6632   -5.4547    4.5238 H   0  0  0  0  0  0  0  0  0  0  0  0
    0.9515   -5.3019    5.2909 H   0  0  0  0  0  0  0  0  0  0  0  0
    0.7636   -6.3179    3.8495 H   0  0  0  0  0  0  0  0  0  0  0  0
   10.7085    0.5107   -0.7115 H   0  0  0  0  0  0  0  0  0  0  0  0
   10.6163    2.2859   -0.4851 H   0  0  0  0  0  0  0  0  0  0  0  0
   10.1493    1.5737   -2.0416 H   0  0  0  0  0  0  0  0  0  0  0  0
    0.5393   -1.7806   -2.4811 H   0  0  0  0  0  0  0  0  0  0  0  0
    1.7065   -1.7835   -1.1519 H   0  0  0  0  0  0  0  0  0  0  0  0
    1.2401   -0.2589   -1.9099 H   0  0  0  0  0  0  0  0  0  0  0  0
   -0.6210   -2.0901   -0.3149 H   0  0  0  0  0  0  0  0  0  0  0  0
   -1.1063   -0.5689   -1.0820 H   0  0  0  0  0  0  0  0  0  0  0  0
   -0.9683    2.9668   -2.7553 H   0  0  0  0  0  0  0  0  0  0  0  0
   -2.5444    2.8622   -1.9588 H   0  0  0  0  0  0  0  0  0  0  0  0
   -1.7144    1.3888   -2.4649 H   0  0  0  0  0  0  0  0  0  0  0  0
   -0.7310    3.3374   -0.3212 H   0  0  0  0  0  0  0  0  0  0  0  0
    0.1200    1.8630   -0.8194 H   0  0  0  0  0  0  0  0  0  0  0  0
   -2.6832    5.8980    4.7529 H   0  0  0  0  0  0  0  0  0  0  0  0
   -4.0676    5.0091    5.4383 H   0  0  0  0  0  0  0  0  0  0  0  0
   -4.3562    6.3696    4.3150 H   0  0  0  0  0  0  0  0  0  0  0  0
   -8.5185   -3.4427   -6.3760 H   0  0  0  0  0  0  0  0  0  0  0  0
   -8.9624   -1.7110   -6.5231 H   0  0  0  0  0  0  0  0  0  0  0  0
   -9.8644   -2.7596   -5.4107 H   0  0  0  0  0  0  0  0  0  0  0  0
   -3.1174    7.1980    2.0693 H   0  0  0  0  0  0  0  0  0  0  0  0
   -1.6785    8.0486    1.4333 H   0  0  0  0  0  0  0  0  0  0  0  0
   -1.8774    7.8606    3.1845 H   0  0  0  0  0  0  0  0  0  0  0  0
   -7.9402    0.9585   -2.5467 H   0  0  0  0  0  0  0  0  0  0  0  0
   -6.1453   -2.8564   -3.3212 H   0  0  0  0  0  0  0  0  0  0  0  0
   -6.3710    3.6314    0.9425 H   0  0  0  0  0  0  0  0  0  0  0  0
   -3.4630   -4.6504   -0.1870 H   0  0  0  0  0  0  0  0  0  0  0  0
    4.1858   -2.7053    2.8573 H   0  0  0  0  0  0  0  0  0  0  0  0
    7.0887    0.0329    0.6522 H   0  0  0  0  0  0  0  0  0  0  0  0
    5.9119    3.9029   -0.7686 H   0  0  0  0  0  0  0  0  0  0  0  0
    2.1079    5.7636    0.7189 H   0  0  0  0  0  0  0  0  0  0  0  0
   -0.8231    3.6375    3.0093 H   0  0  0  0  0  0  0  0  0  0  0  0
   -1.8199   -2.4037    3.0673 H   0  0  0  0  0  0  0  0  0  0  0  0
    0.0767   -2.6077    1.7400 H   0  0  0  0  0  0  0  0  0  0  0  0
   -2.1512    3.7311    1.4764 H   0  0  0  0  0  0  0  0  0  0  0  0
  1  2  2  0  0  0  0
  1112  1  0  0  0  0
  2  3  1  0  0  0  0
  3  4  2  0  0  0  0
  3  7  1  0  0  0  0
  4  5  1  0  0  0  0
  5  6  2  0  0  0  0
  5111  1  0  0  0  0
  6  1  1  0  0  0  0
  6 23  1  0  0  0  0
  7  8  1  0  0  0  0
  7 11  2  0  0  0  0
  8  9  1  0  0  0  0
  9 10  2  0  0  0  0
 10  4  1  0  0  0  0
 11 12  1  0  0  0  0
 11 18  1  0  0  0  0
 12 13  2  0  0  0  0
 13 14  1  0  0  0  0
 14  8  1  0  0  0  0
 14 15  2  0  0  0  0
 15 16  1  0  0  0  0
 15109  1  0  0  0  0
 16 17  2  0  0  0  0
 16 25  1  0  0  0  0
 17  9  1  0  0  0  0
 17110  1  0  0  0  0
 18 70  1  0  0  0  0
 18 19  2  0  0  0  0
 19 20  1  0  0  0  0
 19114  1  0  0  0  0
 20 21  2  0  0  0  0
 20 24  1  0  0  0  0
 21 12  1  0  0  0  0
 21108  1  0  0  0  0
 22  2  1  0  0  0  0
 23 67  2  0  0  0  0
 23 68  1  0  0  0  0
 24 55  1  0  0  0  0
 24 57  2  0  0  0  0
 25 52  2  0  0  0  0
 25 53  1  0  0  0  0
 26 27  2  0  0  0  0
 26113  1  0  0  0  0
 27 28  1  0  0  0  0
 27 47  1  0  0  0  0
 28 29  2  0  0  0  0
 28 32  1  0  0  0  0
 29 30  1  0  0  0  0
 30 31  2  0  0  0  0
 30107  1  0  0  0  0
 31 26  1  0  0  0  0
 31 48  1  0  0  0  0
 32 36  2  0  0  0  0
 33 32  1  0  0  0  0
 33 34  1  0  0  0  0
 34 35  2  0  0  0  0
 35 29  1  0  0  0  0
 36 37  1  0  0  0  0
 36 43  1  0  0  0  0
 37 38  2  0  0  0  0
 38 39  1  0  0  0  0
 39 33  1  0  0  0  0
 39 40  2  0  0  0  0
 40 41  1  0  0  0  0
 40104  1  0  0  0  0
 41 42  2  0  0  0  0
 41 50  1  0  0  0  0
 42 34  1  0  0  0  0
 42105  1  0  0  0  0
 43 73  1  0  0  0  0
 43 44  2  0  0  0  0
 44 45  1  0  0  0  0
 44115  1  0  0  0  0
 45 46  2  0  0  0  0
 45 49  1  0  0  0  0
 46 37  1  0  0  0  0
 46106  1  0  0  0  0
 48 58  2  0  0  0  0
 48 59  1  0  0  0  0
 49 64  2  0  0  0  0
 49 65  1  0  0  0  0
 50 61  2  0  0  0  0
 50 62  1  0  0  0  0
 51 70  1  0  0  0  0
 51 73  1  0  0  0  0
 51 22  1  0  0  0  0
 51 47  1  0  0  0  0
 53 54  1  0  0  0  0
 54 82  1  0  0  0  0
 54 83  1  0  0  0  0
 54 84  1  0  0  0  0
 55 56  1  0  0  0  0
 56 79  1  0  0  0  0
 56 80  1  0  0  0  0
 56 81  1  0  0  0  0
 59 60  1  0  0  0  0
 60 76  1  0  0  0  0
 60 77  1  0  0  0  0
 60 78  1  0  0  0  0
 62 63  1  0  0  0  0
 63 98  1  0  0  0  0
 63 99  1  0  0  0  0
 63100  1  0  0  0  0
 65 66  1  0  0  0  0
 66 95  1  0  0  0  0
 66 96  1  0  0  0  0
 66 97  1  0  0  0  0
 68 69  1  0  0  0  0
 69101  1  0  0  0  0
 69102  1  0  0  0  0
 69103  1  0  0  0  0
 70 72  1  0  0  0  0
 71 72  1  0  0  0  0
 71 85  1  0  0  0  0
 71 86  1  0  0  0  0
 71 87  1  0  0  0  0
 72 88  1  0  0  0  0
 72 89  1  0  0  0  0
 73 75  1  0  0  0  0
 74 75  1  0  0  0  0
 74 90  1  0  0  0  0
 74 91  1  0  0  0  0
 74 92  1  0  0  0  0
 75 93  1  0  0  0  0
 75 94  1  0  0  0  0
M  CHG  1   1  -1
M  END
