energy: -211.933104740060 gnorm: 0.000709338160 xtb: 6.7.1 (edcfbbe)_energy: -211.933104740060 gnorm: 0.000709338160 xtb: 6.7.1 (edcfbbe)
 OpenBabel03112512183D

230252  0  0  0  0  0  0  0  0999 V2000
   -0.2721    3.2739    2.6402 C   0  0  0  0  0  0  0  0  0  0  0  0
    0.3666    2.1531    2.1168 C   0  0  0  0  0  0  0  0  0  0  0  0
    1.6308    2.2930    1.4748 C   0  0  0  0  0  0  0  0  0  0  0  0
    2.0492    3.6402    1.1830 C   0  0  0  0  0  0  0  0  0  0  0  0
    1.2855    4.7544    1.5984 C   0  0  0  0  0  0  0  0  0  0  0  0
    0.1818    4.5746    2.3954 C   0  0  0  0  0  0  0  0  0  0  0  0
    2.5808    1.2399    1.2480 C   0  0  0  0  0  0  0  0  0  0  0  0
    3.8781    1.6671    0.8796 C   0  0  1  0  0  0  0  0  0  0  0  0
    4.1115    3.0043    0.4389 C   0  0  0  0  0  0  0  0  0  0  0  0
    3.1893    3.9482    0.5670 N   0  0  0  0  0  0  0  0  0  0  0  0
    2.4507   -0.1759    1.5045 C   0  0  0  0  0  0  0  0  0  0  0  0
    3.6751   -0.8414    1.8816 C   0  0  0  0  0  0  0  0  0  0  0  0
    4.8884   -0.3666    1.6257 N   0  0  0  0  0  0  0  0  0  0  0  0
    5.0006    0.7971    0.9930 C   0  0  0  0  0  0  0  0  0  0  0  0
    6.2643    1.1994    0.5221 C   0  0  0  0  0  0  0  0  0  0  0  0
    6.4294    2.4533   -0.0519 C   0  0  0  0  0  0  0  0  0  0  0  0
    5.3731    3.3526   -0.0852 C   0  0  0  0  0  0  0  0  0  0  0  0
    1.3262   -1.0295    1.3195 C   0  0  0  0  0  0  0  0  0  0  0  0
    1.3700   -2.3303    1.8163 C   0  0  0  0  0  0  0  0  0  0  0  0
    2.4912   -2.8586    2.4620 C   0  0  0  0  0  0  0  0  0  0  0  0
    3.6563   -2.1345    2.4533 C   0  0  0  0  0  0  0  0  0  0  0  0
   -0.2329    0.9810    2.2874 O   0  0  0  0  0  0  0  0  0  0  0  0
   -0.5725    5.7231    2.9690 C   0  0  0  0  0  0  0  0  0  0  0  0
    2.4754   -4.2072    3.0928 C   0  0  0  0  0  0  0  0  0  0  0  0
    7.7418    2.8934   -0.6026 C   0  0  0  0  0  0  0  0  0  0  0  0
   -2.2142   -2.7788    1.8586 C   0  0  0  0  0  0  0  0  0  0  0  0
   -2.5194   -1.5384    1.3037 C   0  0  0  0  0  0  0  0  0  0  0  0
   -3.4790   -1.4549    0.2535 C   0  0  0  0  0  0  0  0  0  0  0  0
   -3.9245   -2.7006   -0.3124 C   0  0  0  0  0  0  0  0  0  0  0  0
   -3.4362   -3.9385    0.1608 C   0  0  0  0  0  0  0  0  0  0  0  0
   -2.6579   -3.9786    1.2916 C   0  0  0  0  0  0  0  0  0  0  0  0
   -4.1763   -0.2639   -0.1409 C   0  0  0  0  0  0  0  0  0  0  0  0
   -5.3688   -0.4791   -0.8702 C   0  0  1  0  0  0  0  0  0  0  0  0
   -5.6347   -1.7417   -1.4790 C   0  0  0  0  0  0  0  0  0  0  0  0
   -4.8753   -2.8033   -1.2411 N   0  0  0  0  0  0  0  0  0  0  0  0
   -3.9030    1.1153    0.1886 C   0  0  0  0  0  0  0  0  0  0  0  0
   -5.0593    1.9768    0.2306 C   0  0  0  0  0  0  0  0  0  0  0  0
   -6.2396    1.6768   -0.2993 N   0  0  0  0  0  0  0  0  0  0  0  0
   -6.3581    0.5407   -0.9807 C   0  0  0  0  0  0  0  0  0  0  0  0
   -7.5046    0.3290   -1.7659 C   0  0  0  0  0  0  0  0  0  0  0  0
   -7.6766   -0.8641   -2.4581 C   0  0  0  0  0  0  0  0  0  0  0  0
   -6.7581   -1.8930   -2.3189 C   0  0  0  0  0  0  0  0  0  0  0  0
   -2.6406    1.7591    0.2973 C   0  0  0  0  0  0  0  0  0  0  0  0
   -2.6007    3.1232    0.5843 C   0  0  0  0  0  0  0  0  0  0  0  0
   -3.7381    3.8666    0.9042 C   0  0  0  0  0  0  0  0  0  0  0  0
   -4.9727    3.2974    0.7350 C   0  0  0  0  0  0  0  0  0  0  0  0
   -1.9438   -0.4706    1.8429 O   0  0  0  0  0  0  0  0  0  0  0  0
   -2.2961   -5.2632    1.9417 C   0  0  0  0  0  0  0  0  0  0  0  0
   -3.5606    5.2730    1.3580 C   0  0  0  0  0  0  0  0  0  0  0  0
   -8.8857   -1.0062   -3.3163 C   0  0  0  0  0  0  0  0  0  0  0  0
   -0.8508    0.2441    1.1890 B   0  0  2  0  0  0  0  0  0  0  0  0
    7.9387    3.9749   -1.0966 O   0  0  0  0  0  0  0  0  0  0  0  0
    8.6828    1.9493   -0.4924 O   0  0  0  0  0  0  0  0  0  0  0  0
    9.9663    2.2927   -0.9943 C   0  0  0  0  0  0  0  0  0  0  0  0
    1.2692   -4.7729    3.0370 O   0  0  0  0  0  0  0  0  0  0  0  0
    1.1239   -6.0317    3.6813 C   0  0  0  0  0  0  0  0  0  0  0  0
    3.4386   -4.7184    3.6074 O   0  0  0  0  0  0  0  0  0  0  0  0
   -1.8920   -5.3675    3.0735 O   0  0  0  0  0  0  0  0  0  0  0  0
   -2.4902   -6.3107    1.1306 O   0  0  0  0  0  0  0  0  0  0  0  0
   -2.2047   -7.5904    1.6750 C   0  0  0  0  0  0  0  0  0  0  0  0
   -9.7268   -0.1528   -3.4449 O   0  0  0  0  0  0  0  0  0  0  0  0
   -8.9335   -2.1899   -3.9384 O   0  0  0  0  0  0  0  0  0  0  0  0
  -10.0583   -2.4037   -4.7787 C   0  0  0  0  0  0  0  0  0  0  0  0
   -2.6150    5.9642    1.0661 O   0  0  0  0  0  0  0  0  0  0  0  0
   -4.5737    5.6650    2.1247 O   0  0  0  0  0  0  0  0  0  0  0  0
   -4.4619    6.9537    2.7128 C   0  0  0  0  0  0  0  0  0  0  0  0
   -1.5279    5.6113    3.6989 O   0  0  0  0  0  0  0  0  0  0  0  0
   -0.0410    6.8890    2.6066 O   0  0  0  0  0  0  0  0  0  0  0  0
   -0.7118    8.0631    3.0349 C   0  0  0  0  0  0  0  0  0  0  0  0
    0.2210   -0.6540    0.5664 N   0  0  0  0  0  0  0  0  0  0  0  0
    1.0048   -1.7715   -1.4854 C   0  0  0  0  0  0  0  0  0  0  0  0
   -0.1467   -1.5560   -0.5034 C   0  0  0  0  0  0  0  0  0  0  0  0
   -1.4410    1.1033    0.0527 N   0  0  0  0  0  0  0  0  0  0  0  0
   -1.1693    1.9100   -2.2477 C   0  0  0  0  0  0  0  0  0  0  0  0
   -0.5360    1.7621   -0.8654 C   0  0  0  0  0  0  0  0  0  0  0  0
   -2.6370   -8.3163    0.9909 H   0  0  0  0  0  0  0  0  0  0  0  0
   -2.6452   -7.6877    2.6694 H   0  0  0  0  0  0  0  0  0  0  0  0
   -1.1251   -7.7372    1.7499 H   0  0  0  0  0  0  0  0  0  0  0  0
    0.0552   -6.1619    3.8336 H   0  0  0  0  0  0  0  0  0  0  0  0
    1.6585   -6.0315    4.6327 H   0  0  0  0  0  0  0  0  0  0  0  0
    1.5304   -6.8242    3.0486 H   0  0  0  0  0  0  0  0  0  0  0  0
   10.6025    1.4296   -0.8173 H   0  0  0  0  0  0  0  0  0  0  0  0
   10.3544    3.1705   -0.4738 H   0  0  0  0  0  0  0  0  0  0  0  0
    9.9086    2.5160   -2.0617 H   0  0  0  0  0  0  0  0  0  0  0  0
    0.6678   -2.3969   -2.3078 H   0  0  0  0  0  0  0  0  0  0  0  0
    1.8443   -2.2612   -0.9970 H   0  0  0  0  0  0  0  0  0  0  0  0
    1.3461   -0.8206   -1.8882 H   0  0  0  0  0  0  0  0  0  0  0  0
   -0.4809   -2.5342   -0.1310 H   0  0  0  0  0  0  0  0  0  0  0  0
   -0.9916   -1.0940   -1.0182 H   0  0  0  0  0  0  0  0  0  0  0  0
   -0.4444    2.3307   -2.9394 H   0  0  0  0  0  0  0  0  0  0  0  0
   -2.0336    2.5689   -2.2066 H   0  0  0  0  0  0  0  0  0  0  0  0
   -1.4901    0.9402   -2.6216 H   0  0  0  0  0  0  0  0  0  0  0  0
   -0.2155    2.7522   -0.5127 H   0  0  0  0  0  0  0  0  0  0  0  0
    0.3549    1.1346   -0.9252 H   0  0  0  0  0  0  0  0  0  0  0  0
   -3.6426    6.9514    3.4341 H   0  0  0  0  0  0  0  0  0  0  0  0
   -5.4094    7.1432    3.2106 H   0  0  0  0  0  0  0  0  0  0  0  0
   -4.2722    7.7076    1.9454 H   0  0  0  0  0  0  0  0  0  0  0  0
   -9.8873   -3.3526   -5.2803 H   0  0  0  0  0  0  0  0  0  0  0  0
  -10.1492   -1.5932   -5.5046 H   0  0  0  0  0  0  0  0  0  0  0  0
  -10.9731   -2.4445   -4.1836 H   0  0  0  0  0  0  0  0  0  0  0  0
   -1.5712    8.2447    2.3872 H   0  0  0  0  0  0  0  0  0  0  0  0
    0.0048    8.8764    2.9487 H   0  0  0  0  0  0  0  0  0  0  0  0
   -1.0497    7.9550    4.0677 H   0  0  0  0  0  0  0  0  0  0  0  0
   -8.2460    1.1090   -1.8354 H   0  0  0  0  0  0  0  0  0  0  0  0
   -6.8980   -2.8385   -2.8160 H   0  0  0  0  0  0  0  0  0  0  0  0
   -5.8881    3.8509    0.8602 H   0  0  0  0  0  0  0  0  0  0  0  0
   -3.7889   -4.8340   -0.3220 H   0  0  0  0  0  0  0  0  0  0  0  0
    4.5810   -2.5518    2.8174 H   0  0  0  0  0  0  0  0  0  0  0  0
    7.0909    0.5160    0.6219 H   0  0  0  0  0  0  0  0  0  0  0  0
    5.5175    4.3452   -0.4819 H   0  0  0  0  0  0  0  0  0  0  0  0
    1.6457    5.7342    1.3347 H   0  0  0  0  0  0  0  0  0  0  0  0
   -1.1732    3.1240    3.2156 H   0  0  0  0  0  0  0  0  0  0  0  0
   -1.5908   -2.8045    2.7396 H   0  0  0  0  0  0  0  0  0  0  0  0
    0.4907   -2.9473    1.7295 H   0  0  0  0  0  0  0  0  0  0  0  0
   -1.6530    3.6334    0.6316 H   0  0  0  0  0  0  0  0  0  0  0  0
   -0.2721    3.2739   10.6402 C   0  0  0  0  0  0  0  0  0  0  0  0
    0.3666    2.1531   10.1168 C   0  0  0  0  0  0  0  0  0  0  0  0
    1.6308    2.2930    9.4748 C   0  0  0  0  0  0  0  0  0  0  0  0
    2.0492    3.6402    9.1830 C   0  0  0  0  0  0  0  0  0  0  0  0
    1.2855    4.7544    9.5984 C   0  0  0  0  0  0  0  0  0  0  0  0
    0.1818    4.5746   10.3954 C   0  0  0  0  0  0  0  0  0  0  0  0
    2.5808    1.2399    9.2480 C   0  0  0  0  0  0  0  0  0  0  0  0
    3.8781    1.6671    8.8796 C   0  0  1  0  0  0  0  0  0  0  0  0
    4.1115    3.0043    8.4389 C   0  0  0  0  0  0  0  0  0  0  0  0
    3.1893    3.9482    8.5670 N   0  0  0  0  0  0  0  0  0  0  0  0
    2.4507   -0.1759    9.5045 C   0  0  0  0  0  0  0  0  0  0  0  0
    3.6751   -0.8414    9.8816 C   0  0  0  0  0  0  0  0  0  0  0  0
    4.8884   -0.3666    9.6257 N   0  0  0  0  0  0  0  0  0  0  0  0
    5.0006    0.7971    8.9930 C   0  0  0  0  0  0  0  0  0  0  0  0
    6.2643    1.1994    8.5221 C   0  0  0  0  0  0  0  0  0  0  0  0
    6.4294    2.4533    7.9481 C   0  0  0  0  0  0  0  0  0  0  0  0
    5.3731    3.3526    7.9148 C   0  0  0  0  0  0  0  0  0  0  0  0
    1.3262   -1.0295    9.3195 C   0  0  0  0  0  0  0  0  0  0  0  0
    1.3700   -2.3303    9.8163 C   0  0  0  0  0  0  0  0  0  0  0  0
    2.4912   -2.8586   10.4620 C   0  0  0  0  0  0  0  0  0  0  0  0
    3.6563   -2.1345   10.4533 C   0  0  0  0  0  0  0  0  0  0  0  0
   -0.2329    0.9810   10.2874 O   0  0  0  0  0  0  0  0  0  0  0  0
   -0.5725    5.7231   10.9690 C   0  0  0  0  0  0  0  0  0  0  0  0
    2.4754   -4.2072   11.0928 C   0  0  0  0  0  0  0  0  0  0  0  0
    7.7418    2.8934    7.3974 C   0  0  0  0  0  0  0  0  0  0  0  0
   -2.2142   -2.7788    9.8586 C   0  0  0  0  0  0  0  0  0  0  0  0
   -2.5194   -1.5384    9.3037 C   0  0  0  0  0  0  0  0  0  0  0  0
   -3.4790   -1.4549    8.2535 C   0  0  0  0  0  0  0  0  0  0  0  0
   -3.9245   -2.7006    7.6876 C   0  0  0  0  0  0  0  0  0  0  0  0
   -3.4362   -3.9385    8.1608 C   0  0  0  0  0  0  0  0  0  0  0  0
   -2.6579   -3.9786    9.2916 C   0  0  0  0  0  0  0  0  0  0  0  0
   -4.1763   -0.2639    7.8591 C   0  0  0  0  0  0  0  0  0  0  0  0
   -5.3688   -0.4791    7.1298 C   0  0  1  0  0  0  0  0  0  0  0  0
   -5.6347   -1.7417    6.5210 C   0  0  0  0  0  0  0  0  0  0  0  0
   -4.8753   -2.8033    6.7589 N   0  0  0  0  0  0  0  0  0  0  0  0
   -3.9030    1.1153    8.1886 C   0  0  0  0  0  0  0  0  0  0  0  0
   -5.0593    1.9768    8.2306 C   0  0  0  0  0  0  0  0  0  0  0  0
   -6.2396    1.6768    7.7007 N   0  0  0  0  0  0  0  0  0  0  0  0
   -6.3581    0.5407    7.0193 C   0  0  0  0  0  0  0  0  0  0  0  0
   -7.5046    0.3290    6.2341 C   0  0  0  0  0  0  0  0  0  0  0  0
   -7.6766   -0.8641    5.5419 C   0  0  0  0  0  0  0  0  0  0  0  0
   -6.7581   -1.8930    5.6811 C   0  0  0  0  0  0  0  0  0  0  0  0
   -2.6406    1.7591    8.2973 C   0  0  0  0  0  0  0  0  0  0  0  0
   -2.6007    3.1232    8.5843 C   0  0  0  0  0  0  0  0  0  0  0  0
   -3.7381    3.8666    8.9042 C   0  0  0  0  0  0  0  0  0  0  0  0
   -4.9727    3.2974    8.7350 C   0  0  0  0  0  0  0  0  0  0  0  0
   -1.9438   -0.4706    9.8429 O   0  0  0  0  0  0  0  0  0  0  0  0
   -2.2961   -5.2632    9.9417 C   0  0  0  0  0  0  0  0  0  0  0  0
   -3.5606    5.2730    9.3580 C   0  0  0  0  0  0  0  0  0  0  0  0
   -8.8857   -1.0062    4.6837 C   0  0  0  0  0  0  0  0  0  0  0  0
   -0.8508    0.2441    9.1890 B   0  0  2  0  0  0  0  0  0  0  0  0
    7.9387    3.9749    6.9034 O   0  0  0  0  0  0  0  0  0  0  0  0
    8.6828    1.9493    7.5076 O   0  0  0  0  0  0  0  0  0  0  0  0
    9.9663    2.2927    7.0057 C   0  0  0  0  0  0  0  0  0  0  0  0
    1.2692   -4.7729   11.0370 O   0  0  0  0  0  0  0  0  0  0  0  0
    1.1239   -6.0317   11.6813 C   0  0  0  0  0  0  0  0  0  0  0  0
    3.4386   -4.7184   11.6074 O   0  0  0  0  0  0  0  0  0  0  0  0
   -1.8920   -5.3675   11.0735 O   0  0  0  0  0  0  0  0  0  0  0  0
   -2.4902   -6.3107    9.1306 O   0  0  0  0  0  0  0  0  0  0  0  0
   -2.2047   -7.5904    9.6750 C   0  0  0  0  0  0  0  0  0  0  0  0
   -9.7268   -0.1528    4.5551 O   0  0  0  0  0  0  0  0  0  0  0  0
   -8.9335   -2.1899    4.0616 O   0  0  0  0  0  0  0  0  0  0  0  0
  -10.0583   -2.4037    3.2213 C   0  0  0  0  0  0  0  0  0  0  0  0
   -2.6150    5.9642    9.0661 O   0  0  0  0  0  0  0  0  0  0  0  0
   -4.5737    5.6650   10.1247 O   0  0  0  0  0  0  0  0  0  0  0  0
   -4.4619    6.9537   10.7128 C   0  0  0  0  0  0  0  0  0  0  0  0
   -1.5279    5.6113   11.6989 O   0  0  0  0  0  0  0  0  0  0  0  0
   -0.0410    6.8890   10.6066 O   0  0  0  0  0  0  0  0  0  0  0  0
   -0.7118    8.0631   11.0349 C   0  0  0  0  0  0  0  0  0  0  0  0
    0.2210   -0.6540    8.5664 N   0  0  0  0  0  0  0  0  0  0  0  0
    1.0048   -1.7715    6.5146 C   0  0  0  0  0  0  0  0  0  0  0  0
   -0.1467   -1.5560    7.4966 C   0  0  0  0  0  0  0  0  0  0  0  0
   -1.4410    1.1033    8.0527 N   0  0  0  0  0  0  0  0  0  0  0  0
   -1.1693    1.9100    5.7523 C   0  0  0  0  0  0  0  0  0  0  0  0
   -0.5360    1.7621    7.1346 C   0  0  0  0  0  0  0  0  0  0  0  0
   -2.6370   -8.3163    8.9909 H   0  0  0  0  0  0  0  0  0  0  0  0
   -2.6452   -7.6877   10.6694 H   0  0  0  0  0  0  0  0  0  0  0  0
   -1.1251   -7.7372    9.7499 H   0  0  0  0  0  0  0  0  0  0  0  0
    0.0552   -6.1619   11.8336 H   0  0  0  0  0  0  0  0  0  0  0  0
    1.6585   -6.0315   12.6327 H   0  0  0  0  0  0  0  0  0  0  0  0
    1.5304   -6.8242   11.0486 H   0  0  0  0  0  0  0  0  0  0  0  0
   10.6025    1.4296    7.1827 H   0  0  0  0  0  0  0  0  0  0  0  0
   10.3544    3.1705    7.5262 H   0  0  0  0  0  0  0  0  0  0  0  0
    9.9086    2.5160    5.9383 H   0  0  0  0  0  0  0  0  0  0  0  0
    0.6678   -2.3969    5.6922 H   0  0  0  0  0  0  0  0  0  0  0  0
    1.8443   -2.2612    7.0030 H   0  0  0  0  0  0  0  0  0  0  0  0
    1.3461   -0.8206    6.1118 H   0  0  0  0  0  0  0  0  0  0  0  0
   -0.4809   -2.5342    7.8690 H   0  0  0  0  0  0  0  0  0  0  0  0
   -0.9916   -1.0940    6.9818 H   0  0  0  0  0  0  0  0  0  0  0  0
   -0.4444    2.3307    5.0606 H   0  0  0  0  0  0  0  0  0  0  0  0
   -2.0336    2.5689    5.7934 H   0  0  0  0  0  0  0  0  0  0  0  0
   -1.4901    0.9402    5.3784 H   0  0  0  0  0  0  0  0  0  0  0  0
   -0.2155    2.7522    7.4873 H   0  0  0  0  0  0  0  0  0  0  0  0
    0.3549    1.1346    7.0748 H   0  0  0  0  0  0  0  0  0  0  0  0
   -3.6426    6.9514   11.4341 H   0  0  0  0  0  0  0  0  0  0  0  0
   -5.4094    7.1432   11.2106 H   0  0  0  0  0  0  0  0  0  0  0  0
   -4.2722    7.7076    9.9454 H   0  0  0  0  0  0  0  0  0  0  0  0
   -9.8873   -3.3526    2.7197 H   0  0  0  0  0  0  0  0  0  0  0  0
  -10.1492   -1.5932    2.4954 H   0  0  0  0  0  0  0  0  0  0  0  0
  -10.9731   -2.4445    3.8164 H   0  0  0  0  0  0  0  0  0  0  0  0
   -1.5712    8.2447   10.3872 H   0  0  0  0  0  0  0  0  0  0  0  0
    0.0048    8.8764   10.9487 H   0  0  0  0  0  0  0  0  0  0  0  0
   -1.0497    7.9550   12.0677 H   0  0  0  0  0  0  0  0  0  0  0  0
   -8.2460    1.1090    6.1646 H   0  0  0  0  0  0  0  0  0  0  0  0
   -6.8980   -2.8385    5.1840 H   0  0  0  0  0  0  0  0  0  0  0  0
   -5.8881    3.8509    8.8602 H   0  0  0  0  0  0  0  0  0  0  0  0
   -3.7889   -4.8340    7.6780 H   0  0  0  0  0  0  0  0  0  0  0  0
    4.5810   -2.5518   10.8174 H   0  0  0  0  0  0  0  0  0  0  0  0
    7.0909    0.5160    8.6219 H   0  0  0  0  0  0  0  0  0  0  0  0
    5.5175    4.3452    7.5181 H   0  0  0  0  0  0  0  0  0  0  0  0
    1.6457    5.7342    9.3347 H   0  0  0  0  0  0  0  0  0  0  0  0
   -1.1732    3.1240   11.2156 H   0  0  0  0  0  0  0  0  0  0  0  0
   -1.5908   -2.8045   10.7396 H   0  0  0  0  0  0  0  0  0  0  0  0
    0.4907   -2.9473    9.7295 H   0  0  0  0  0  0  0  0  0  0  0  0
   -1.6530    3.6334    8.6316 H   0  0  0  0  0  0  0  0  0  0  0  0
  1  2  2  0  0  0  0
  1112  1  0  0  0  0
  2  3  1  0  0  0  0
  3  4  2  0  0  0  0
  3  7  1  0  0  0  0
  4  5  1  0  0  0  0
  5  6  2  0  0  0  0
  5111  1  0  0  0  0
  6  1  1  0  0  0  0
  6 23  1  0  0  0  0
  7 11  2  0  0  0  0
  8  7  1  1  0  0  0
  8  9  1  0  0  0  0
  9 10  2  0  0  0  0
 10  4  1  0  0  0  0
 11 12  1  0  0  0  0
 11 18  1  0  0  0  0
 12 13  2  0  0  0  0
 13 14  1  0  0  0  0
 14  8  1  0  0  0  0
 14 15  2  0  0  0  0
 15 16  1  0  0  0  0
 15109  1  0  0  0  0
 16 17  2  0  0  0  0
 16 25  1  0  0  0  0
 17  9  1  0  0  0  0
 17110  1  0  0  0  0
 18 70  1  0  0  0  0
 18 19  2  0  0  0  0
 19 20  1  0  0  0  0
 19114  1  0  0  0  0
 20 21  2  0  0  0  0
 20 24  1  0  0  0  0
 21 12  1  0  0  0  0
 21108  1  0  0  0  0
 22  2  1  0  0  0  0
 23 67  2  0  0  0  0
 23 68  1  0  0  0  0
 24 55  1  0  0  0  0
 24 57  2  0  0  0  0
 25 52  2  0  0  0  0
 25 53  1  0  0  0  0
 26 27  2  0  0  0  0
 26113  1  0  0  0  0
 27 28  1  0  0  0  0
 27 47  1  0  0  0  0
 28 29  2  0  0  0  0
 28 32  1  0  0  0  0
 29 30  1  0  0  0  0
 30 31  2  0  0  0  0
 30107  1  0  0  0  0
 31 26  1  0  0  0  0
 31 48  1  0  0  0  0
 32 36  2  0  0  0  0
 33 32  1  1  0  0  0
 33 34  1  0  0  0  0
 34 35  2  0  0  0  0
 35 29  1  0  0  0  0
 36 37  1  0  0  0  0
 36 43  1  0  0  0  0
 37 38  2  0  0  0  0
 38 39  1  0  0  0  0
 39 33  1  0  0  0  0
 39 40  2  0  0  0  0
 40 41  1  0  0  0  0
 40104  1  0  0  0  0
 41 42  2  0  0  0  0
 41 50  1  0  0  0  0
 42 34  1  0  0  0  0
 42105  1  0  0  0  0
 43 73  1  0  0  0  0
 43 44  2  0  0  0  0
 44 45  1  0  0  0  0
 44115  1  0  0  0  0
 45 46  2  0  0  0  0
 45 49  1  0  0  0  0
 46 37  1  0  0  0  0
 46106  1  0  0  0  0
 48 58  2  0  0  0  0
 48 59  1  0  0  0  0
 49 64  2  0  0  0  0
 49 65  1  0  0  0  0
 50 61  2  0  0  0  0
 50 62  1  0  0  0  0
 51 70  1  0  0  0  0
 51 73  1  0  0  0  0
 51 22  1  1  0  0  0
 51 47  1  0  0  0  0
 53 54  1  0  0  0  0
 54 82  1  0  0  0  0
 54 83  1  0  0  0  0
 54 84  1  0  0  0  0
 55 56  1  0  0  0  0
 56 79  1  0  0  0  0
 56 80  1  0  0  0  0
 56 81  1  0  0  0  0
 59 60  1  0  0  0  0
 60 76  1  0  0  0  0
 60 77  1  0  0  0  0
 60 78  1  0  0  0  0
 62 63  1  0  0  0  0
 63 98  1  0  0  0  0
 63 99  1  0  0  0  0
 63100  1  0  0  0  0
 65 66  1  0  0  0  0
 66 95  1  0  0  0  0
 66 96  1  0  0  0  0
 66 97  1  0  0  0  0
 68 69  1  0  0  0  0
 69101  1  0  0  0  0
 69102  1  0  0  0  0
 69103  1  0  0  0  0
 70 72  1  0  0  0  0
 71 72  1  0  0  0  0
 71 85  1  0  0  0  0
 71 86  1  0  0  0  0
 71 87  1  0  0  0  0
 72 88  1  0  0  0  0
 72 89  1  0  0  0  0
 73 75  1  0  0  0  0
 74 75  1  0  0  0  0
 74 90  1  0  0  0  0
 74 91  1  0  0  0  0
 74 92  1  0  0  0  0
 75 93  1  0  0  0  0
 75 94  1  0  0  0  0
116117  2  0  0  0  0
116227  1  0  0  0  0
117118  1  0  0  0  0
118119  2  0  0  0  0
118122  1  0  0  0  0
119120  1  0  0  0  0
120121  2  0  0  0  0
120226  1  0  0  0  0
121116  1  0  0  0  0
121138  1  0  0  0  0
122126  2  0  0  0  0
123122  1  1  0  0  0
123124  1  0  0  0  0
124125  2  0  0  0  0
125119  1  0  0  0  0
126127  1  0  0  0  0
126133  1  0  0  0  0
127128  2  0  0  0  0
128129  1  0  0  0  0
129123  1  0  0  0  0
129130  2  0  0  0  0
130131  1  0  0  0  0
130224  1  0  0  0  0
131132  2  0  0  0  0
131140  1  0  0  0  0
132124  1  0  0  0  0
132225  1  0  0  0  0
133185  1  0  0  0  0
133134  2  0  0  0  0
134135  1  0  0  0  0
134229  1  0  0  0  0
135136  2  0  0  0  0
135139  1  0  0  0  0
136127  1  0  0  0  0
136223  1  0  0  0  0
137117  1  0  0  0  0
138182  2  0  0  0  0
138183  1  0  0  0  0
139170  1  0  0  0  0
139172  2  0  0  0  0
140167  2  0  0  0  0
140168  1  0  0  0  0
141142  2  0  0  0  0
141228  1  0  0  0  0
142143  1  0  0  0  0
142162  1  0  0  0  0
143144  2  0  0  0  0
143147  1  0  0  0  0
144145  1  0  0  0  0
145146  2  0  0  0  0
145222  1  0  0  0  0
146141  1  0  0  0  0
146163  1  0  0  0  0
147151  2  0  0  0  0
148147  1  1  0  0  0
148149  1  0  0  0  0
149150  2  0  0  0  0
150144  1  0  0  0  0
151152  1  0  0  0  0
151158  1  0  0  0  0
152153  2  0  0  0  0
153154  1  0  0  0  0
154148  1  0  0  0  0
154155  2  0  0  0  0
155156  1  0  0  0  0
155219  1  0  0  0  0
156157  2  0  0  0  0
156165  1  0  0  0  0
157149  1  0  0  0  0
157220  1  0  0  0  0
158188  1  0  0  0  0
158159  2  0  0  0  0
159160  1  0  0  0  0
159230  1  0  0  0  0
160161  2  0  0  0  0
160164  1  0  0  0  0
161152  1  0  0  0  0
161221  1  0  0  0  0
163173  2  0  0  0  0
163174  1  0  0  0  0
164179  2  0  0  0  0
164180  1  0  0  0  0
165176  2  0  0  0  0
165177  1  0  0  0  0
166185  1  0  0  0  0
166188  1  0  0  0  0
166137  1  1  0  0  0
166162  1  0  0  0  0
168169  1  0  0  0  0
169197  1  0  0  0  0
169198  1  0  0  0  0
169199  1  0  0  0  0
170171  1  0  0  0  0
171194  1  0  0  0  0
171195  1  0  0  0  0
171196  1  0  0  0  0
174175  1  0  0  0  0
175191  1  0  0  0  0
175192  1  0  0  0  0
175193  1  0  0  0  0
177178  1  0  0  0  0
178213  1  0  0  0  0
178214  1  0  0  0  0
178215  1  0  0  0  0
180181  1  0  0  0  0
181210  1  0  0  0  0
181211  1  0  0  0  0
181212  1  0  0  0  0
183184  1  0  0  0  0
184216  1  0  0  0  0
184217  1  0  0  0  0
184218  1  0  0  0  0
185187  1  0  0  0  0
186187  1  0  0  0  0
186200  1  0  0  0  0
186201  1  0  0  0  0
186202  1  0  0  0  0
187203  1  0  0  0  0
187204  1  0  0  0  0
188190  1  0  0  0  0
189190  1  0  0  0  0
189205  1  0  0  0  0
189206  1  0  0  0  0
189207  1  0  0  0  0
190208  1  0  0  0  0
190209  1  0  0  0  0
M  END
