 xtb: 6.7.1 (43a0e4e5b5d943adc66b4aa6563d39c792f6153b)
          11252411353D

 75 79  0     0  0            999 V2000
    0.0812    3.7980    0.2658 C   0  0  0  0  0  0  0  0  0  0  0  0
    0.5343   -3.3441    1.9529 C   0  0  0  0  0  0  0  0  0  0  0  0
   -4.1459    1.5716   -1.4476 C   0  0  0  0  0  0  0  0  0  0  0  0
   -3.5181    0.6090   -0.6671 C   0  0  0  0  0  0  0  0  0  0  0  0
   -2.3027    0.9451    0.0074 C   0  0  0  0  0  0  0  0  0  0  0  0
   -1.6514    2.1732   -0.2819 C   0  0  0  0  0  0  0  0  0  0  0  0
   -2.3195    3.1243   -1.0729 C   0  0  0  0  0  0  0  0  0  0  0  0
   -3.5396    2.8007   -1.5914 C   0  0  0  0  0  0  0  0  0  0  0  0
   -1.6673    0.0563    0.9235 C   0  0  0  0  0  0  0  0  0  0  0  0
   -0.2733    0.1789    1.0710 C   0  0  0  0  0  0  0  0  0  0  0  0
    0.3702    1.3901    0.6764 C   0  0  0  0  0  0  0  0  0  0  0  0
   -0.3958    2.4218    0.2075 N   0  0  0  0  0  0  0  0  0  0  0  0
   -2.3127   -0.9518    1.6976 C   0  0  0  0  0  0  0  0  0  0  0  0
   -1.5359   -2.0665    2.1102 C   0  0  0  0  0  0  0  0  0  0  0  0
   -0.1809   -2.0748    1.9107 N   0  0  0  0  0  0  0  0  0  0  0  0
    0.4727   -0.9099    1.6141 C   0  0  0  0  0  0  0  0  0  0  0  0
    1.8495   -0.7467    1.7926 C   0  0  0  0  0  0  0  0  0  0  0  0
    2.4326    0.4231    1.3757 C   0  0  0  0  0  0  0  0  0  0  0  0
    1.7590    1.4772    0.8123 C   0  0  0  0  0  0  0  0  0  0  0  0
   -3.6787   -0.8467    2.1064 C   0  0  0  0  0  0  0  0  0  0  0  0
   -4.2866   -1.9383    2.7130 C   0  0  0  0  0  0  0  0  0  0  0  0
   -3.5278   -3.0634    2.9538 C   0  0  0  0  0  0  0  0  0  0  0  0
   -2.1875   -3.1562    2.7146 C   0  0  0  0  0  0  0  0  0  0  0  0
   -4.2723    0.3307    1.9223 O   0  0  0  0  0  0  0  0  0  0  0  0
   -3.9477   -0.6455   -0.5470 O   0  0  0  0  0  0  0  0  0  0  0  0
   -5.0808    1.3876   -1.9458 H   0  0  0  0  0  0  0  0  0  0  0  0
   -1.8951    4.0808   -1.3134 H   0  0  0  0  0  0  0  0  0  0  0  0
   -5.3230   -1.9344    2.9994 H   0  0  0  0  0  0  0  0  0  0  0  0
   -1.6704   -4.0460    3.0205 H   0  0  0  0  0  0  0  0  0  0  0  0
    2.4692   -1.4845    2.2688 H   0  0  0  0  0  0  0  0  0  0  0  0
    2.3288    2.3212    0.4690 H   0  0  0  0  0  0  0  0  0  0  0  0
    0.1118   -4.2589    0.7952 C   0  0  0  0  0  0  0  0  0  0  0  0
    0.8660   -5.5804    0.8702 C   0  0  0  0  0  0  0  0  0  0  0  0
   -0.7547    4.6395    1.2398 C   0  0  0  0  0  0  0  0  0  0  0  0
   -0.2461    6.0757    1.2578 C   0  0  0  0  0  0  0  0  0  0  0  0
   -5.5959    0.5287    2.3995 C   0  0  0  0  0  0  0  0  0  0  0  0
   -5.1049   -1.0630   -1.2578 C   0  0  0  0  0  0  0  0  0  0  0  0
   -4.4296    4.0921   -2.5682 S   0  0  0  0  0  0  0  0  0  0  0  0
   -4.0734    5.2380   -1.4290 F   0  0  0  0  0  0  0  0  0  0  0  0
   -3.0552    4.4958   -3.3870 F   0  0  0  0  0  0  0  0  0  0  0  0
   -5.8434    3.7521   -1.7822 F   0  0  0  0  0  0  0  0  0  0  0  0
   -5.2044    5.2143   -3.3918 F   0  0  0  0  0  0  0  0  0  0  0  0
   -4.8273    3.0095   -3.7449 F   0  0  0  0  0  0  0  0  0  0  0  0
   -4.3824   -4.5452    3.6528 S   0  0  0  0  0  0  0  0  0  0  0  0
   -5.6224   -4.3696    2.5736 F   0  0  0  0  0  0  0  0  0  0  0  0
   -5.2069   -3.6279    4.7452 F   0  0  0  0  0  0  0  0  0  0  0  0
   -5.1225   -5.8319    4.2318 F   0  0  0  0  0  0  0  0  0  0  0  0
   -3.5970   -5.5340    2.5835 F   0  0  0  0  0  0  0  0  0  0  0  0
   -3.1759   -4.7932    4.7501 F   0  0  0  0  0  0  0  0  0  0  0  0
    4.2626    0.5910    1.5878 S   0  0  0  0  0  0  0  0  0  0  0  0
    4.5062   -0.9544    1.0625 F   0  0  0  0  0  0  0  0  0  0  0  0
    4.4287    1.1488    0.0455 F   0  0  0  0  0  0  0  0  0  0  0  0
    5.8374    0.7359    1.7709 F   0  0  0  0  0  0  0  0  0  0  0  0
    4.0985    2.1434    2.1224 F   0  0  0  0  0  0  0  0  0  0  0  0
    4.1712    0.0403    3.1387 F   0  0  0  0  0  0  0  0  0  0  0  0
    0.3651   -3.8356    2.9127 H   0  0  0  0  0  0  0  0  0  0  0  0
    1.6005   -3.1586    1.8559 H   0  0  0  0  0  0  0  0  0  0  0  0
    0.3383   -3.7595   -0.1486 H   0  0  0  0  0  0  0  0  0  0  0  0
   -0.9610   -4.4506    0.8285 H   0  0  0  0  0  0  0  0  0  0  0  0
    1.9397   -5.4188    0.8245 H   0  0  0  0  0  0  0  0  0  0  0  0
    0.5820   -6.2167    0.0378 H   0  0  0  0  0  0  0  0  0  0  0  0
    0.6323   -6.1051    1.7923 H   0  0  0  0  0  0  0  0  0  0  0  0
   -5.2373   -2.1122   -0.9993 H   0  0  0  0  0  0  0  0  0  0  0  0
   -4.9617   -0.9652   -2.3358 H   0  0  0  0  0  0  0  0  0  0  0  0
   -5.9859   -0.4954   -0.9514 H   0  0  0  0  0  0  0  0  0  0  0  0
   -5.8398    1.5600    2.1509 H   0  0  0  0  0  0  0  0  0  0  0  0
   -5.6488    0.3891    3.4814 H   0  0  0  0  0  0  0  0  0  0  0  0
   -6.3017   -0.1442    1.9079 H   0  0  0  0  0  0  0  0  0  0  0  0
    0.0673    4.2399   -0.7324 H   0  0  0  0  0  0  0  0  0  0  0  0
    1.1082    3.8060    0.6205 H   0  0  0  0  0  0  0  0  0  0  0  0
   -0.6725    4.2077    2.2390 H   0  0  0  0  0  0  0  0  0  0  0  0
   -1.8063    4.6311    0.9523 H   0  0  0  0  0  0  0  0  0  0  0  0
    0.7989    6.1149    1.5538 H   0  0  0  0  0  0  0  0  0  0  0  0
   -0.8225    6.6640    1.9650 H   0  0  0  0  0  0  0  0  0  0  0  0
   -0.3469    6.5318    0.2768 H   0  0  0  0  0  0  0  0  0  0  0  0
  3  4  4  0  0  0  0
  4  5  4  0  0  0  0
  5  6  4  0  0  0  0
  6  7  4  0  0  0  0
  3  8  4  0  0  0  0
  7  8  4  0  0  0  0
  5  9  4  0  0  0  0
  9 10  4  0  0  0  0
 10 11  4  0  0  0  0
  1 12  1  0  0  0  0
  6 12  1  0  0  0  0
 11 12  1  0  0  0  0
  9 13  4  0  0  0  0
 13 14  4  0  0  0  0
  2 15  1  0  0  0  0
 14 15  1  0  0  0  0
 10 16  4  0  0  0  0
 15 16  1  0  0  0  0
 16 17  4  0  0  0  0
 17 18  4  0  0  0  0
 11 19  4  0  0  0  0
 18 19  4  0  0  0  0
 13 20  4  0  0  0  0
 20 21  4  0  0  0  0
 21 22  4  0  0  0  0
 14 23  4  0  0  0  0
 22 23  4  0  0  0  0
 20 24  1  0  0  0  0
  4 25  1  0  0  0  0
  3 26  1  0  0  0  0
  7 27  1  0  0  0  0
 21 28  1  0  0  0  0
 23 29  1  0  0  0  0
 17 30  1  0  0  0  0
 19 31  1  0  0  0  0
  2 32  1  0  0  0  0
 32 33  1  0  0  0  0
  1 34  1  0  0  0  0
 34 35  1  0  0  0  0
 24 36  1  0  0  0  0
 25 37  1  0  0  0  0
  8 38  1  0  0  0  0
 38 39  1  0  0  0  0
 38 40  1  0  0  0  0
 38 41  1  0  0  0  0
 38 42  1  0  0  0  0
 38 43  1  0  0  0  0
 22 44  1  0  0  0  0
 44 45  1  0  0  0  0
 44 46  1  0  0  0  0
 44 47  1  0  0  0  0
 44 48  1  0  0  0  0
 44 49  1  0  0  0  0
 18 50  1  0  0  0  0
 50 51  1  0  0  0  0
 50 52  1  0  0  0  0
 50 53  1  0  0  0  0
 50 54  1  0  0  0  0
 50 55  1  0  0  0  0
  2 56  1  0  0  0  0
  2 57  1  0  0  0  0
 32 58  1  0  0  0  0
 32 59  1  0  0  0  0
 33 60  1  0  0  0  0
 33 61  1  0  0  0  0
 33 62  1  0  0  0  0
 37 63  1  0  0  0  0
 37 64  1  0  0  0  0
 37 65  1  0  0  0  0
 36 66  1  0  0  0  0
 36 67  1  0  0  0  0
 36 68  1  0  0  0  0
  1 69  1  0  0  0  0
  1 70  1  0  0  0  0
 34 71  1  0  0  0  0
 34 72  1  0  0  0  0
 35 73  1  0  0  0  0
 35 74  1  0  0  0  0
 35 75  1  0  0  0  0
M  CHG  1   1   1
M  END
