xtb: 6.7.1 (43a0e4e5b5d943adc66b4aa6563d39c792f6153b)_xtb: 6.7.1 (43a0e4e5b5d943adc66b4aa6563d39c792f6153b)
 OpenBabel11252411353D

150158  0  0  0  0  0  0  0  0999 V2000
    0.0559    3.8135    0.3567 C   0  0  0  0  0  0  0  0  0  0  0  0
    0.5382   -3.3625    1.8529 C   0  0  0  0  0  0  0  0  0  0  0  0
   -4.1132    1.5557   -1.4875 C   0  0  0  0  0  0  0  0  0  0  0  0
   -3.4803    0.6041   -0.6957 C   0  0  0  0  0  0  0  0  0  0  0  0
   -2.2822    0.9460   -0.0094 C   0  0  0  0  0  0  0  0  0  0  0  0
   -1.6394    2.1730   -0.2949 C   0  0  0  0  0  0  0  0  0  0  0  0
   -2.2764    3.1051   -1.1191 C   0  0  0  0  0  0  0  0  0  0  0  0
   -3.4992    2.7755   -1.6465 C   0  0  0  0  0  0  0  0  0  0  0  0
   -1.6497    0.0526    0.9066 C   0  0  0  0  0  0  0  0  0  0  0  0
   -0.2440    0.1785    1.0598 C   0  0  0  0  0  0  0  0  0  0  0  0
    0.3882    1.3934    0.7015 C   0  0  2  0  0  0  0  0  0  0  0  0
   -0.3929    2.4364    0.2448 N   0  0  0  0  0  0  0  0  0  0  0  0
   -2.2936   -0.9586    1.6816 C   0  0  0  0  0  0  0  0  0  0  0  0
   -1.5235   -2.0664    2.1048 C   0  0  0  0  0  0  0  0  0  0  0  0
   -0.1634   -2.0906    1.8543 N   0  0  0  0  0  0  0  0  0  0  0  0
    0.4992   -0.9124    1.5709 C   0  0  0  0  0  0  0  0  0  0  0  0
    1.8714   -0.7543    1.7709 C   0  0  0  0  0  0  0  0  0  0  0  0
    2.4520    0.4253    1.3714 C   0  0  0  0  0  0  0  0  0  0  0  0
    1.7755    1.4880    0.8224 C   0  0  0  0  0  0  0  0  0  0  0  0
   -3.6479   -0.8432    2.0998 C   0  0  0  0  0  0  0  0  0  0  0  0
   -4.2623   -1.9150    2.7375 C   0  0  0  0  0  0  0  0  0  0  0  0
   -3.4975   -3.0221    3.0200 C   0  0  0  0  0  0  0  0  0  0  0  0
   -2.1522   -3.1229    2.7703 C   0  0  0  0  0  0  0  0  0  0  0  0
   -4.2462    0.3448    1.8887 O   0  0  0  0  0  0  0  0  0  0  0  0
   -3.9086   -0.6668   -0.5701 O   0  0  0  0  0  0  0  0  0  0  0  0
   -5.0492    1.3697   -1.9809 H   0  0  0  0  0  0  0  0  0  0  0  0
   -1.8478    4.0584   -1.3619 H   0  0  0  0  0  0  0  0  0  0  0  0
   -5.2990   -1.9055    3.0194 H   0  0  0  0  0  0  0  0  0  0  0  0
   -1.6289   -4.0004    3.0979 H   0  0  0  0  0  0  0  0  0  0  0  0
    2.4869   -1.5036    2.2330 H   0  0  0  0  0  0  0  0  0  0  0  0
    2.3361    2.3443    0.4967 H   0  0  0  0  0  0  0  0  0  0  0  0
    0.0247   -4.2818    0.7381 C   0  0  0  0  0  0  0  0  0  0  0  0
    0.7802   -5.6047    0.7479 C   0  0  0  0  0  0  0  0  0  0  0  0
   -0.8492    4.6219    1.2941 C   0  0  0  0  0  0  0  0  0  0  0  0
   -0.3510    6.0570    1.4086 C   0  0  0  0  0  0  0  0  0  0  0  0
   -5.5836    0.5223    2.3109 C   0  0  0  0  0  0  0  0  0  0  0  0
   -5.0866   -1.0625   -1.2426 C   0  0  0  0  0  0  0  0  0  0  0  0
   -4.3812    4.0567   -2.6170 S   0  0  0  0  0  0  0  0  0  0  0  0
   -4.0371    5.2422   -1.4971 F   0  0  0  0  0  0  0  0  0  0  0  0
   -3.0153    4.4790   -3.4664 F   0  0  0  0  0  0  0  0  0  0  0  0
   -5.8253    3.7485   -1.8447 F   0  0  0  0  0  0  0  0  0  0  0  0
   -5.1628    5.1893   -3.4583 F   0  0  0  0  0  0  0  0  0  0  0  0
   -4.8047    2.9845   -3.8151 F   0  0  0  0  0  0  0  0  0  0  0  0
   -4.3373   -4.4724    3.7632 S   0  0  0  0  0  0  0  0  0  0  0  0
   -5.6165   -4.3648    2.6999 F   0  0  0  0  0  0  0  0  0  0  0  0
   -5.1778   -3.5392    4.8534 F   0  0  0  0  0  0  0  0  0  0  0  0
   -5.0791   -5.7540    4.4024 F   0  0  0  0  0  0  0  0  0  0  0  0
   -3.5704   -5.5329    2.7308 F   0  0  0  0  0  0  0  0  0  0  0  0
   -3.1309   -4.7097    4.8834 F   0  0  0  0  0  0  0  0  0  0  0  0
    4.2658    0.5950    1.5891 S   0  0  0  0  0  0  0  0  0  0  0  0
    4.5555   -0.9423    1.0228 F   0  0  0  0  0  0  0  0  0  0  0  0
    4.4720    1.2031    0.0564 F   0  0  0  0  0  0  0  0  0  0  0  0
    5.8589    0.7438    1.7810 F   0  0  0  0  0  0  0  0  0  0  0  0
    4.1282    2.1464    2.1737 F   0  0  0  0  0  0  0  0  0  0  0  0
    4.2131    0.0013    3.1407 F   0  0  0  0  0  0  0  0  0  0  0  0
    0.4418   -3.8510    2.8260 H   0  0  0  0  0  0  0  0  0  0  0  0
    1.5949   -3.1778    1.6735 H   0  0  0  0  0  0  0  0  0  0  0  0
    0.1681   -3.7806   -0.2211 H   0  0  0  0  0  0  0  0  0  0  0  0
   -1.0417   -4.4710    0.8626 H   0  0  0  0  0  0  0  0  0  0  0  0
    1.8471   -5.4417    0.6153 H   0  0  0  0  0  0  0  0  0  0  0  0
    0.4281   -6.2435   -0.0568 H   0  0  0  0  0  0  0  0  0  0  0  0
    0.6238   -6.1261    1.6887 H   0  0  0  0  0  0  0  0  0  0  0  0
   -5.2318   -2.1084   -0.9769 H   0  0  0  0  0  0  0  0  0  0  0  0
   -4.9752   -0.9706   -2.3264 H   0  0  0  0  0  0  0  0  0  0  0  0
   -5.9508   -0.4786   -0.9156 H   0  0  0  0  0  0  0  0  0  0  0  0
   -5.8388    1.5438    2.0357 H   0  0  0  0  0  0  0  0  0  0  0  0
   -5.6789    0.3981    3.3934 H   0  0  0  0  0  0  0  0  0  0  0  0
   -6.2594   -0.1720    1.8054 H   0  0  0  0  0  0  0  0  0  0  0  0
    0.0989    4.2809   -0.6305 H   0  0  0  0  0  0  0  0  0  0  0  0
    1.0598    3.8205    0.7749 H   0  0  0  0  0  0  0  0  0  0  0  0
   -0.8441    4.1484    2.2777 H   0  0  0  0  0  0  0  0  0  0  0  0
   -1.8754    4.6219    0.9260 H   0  0  0  0  0  0  0  0  0  0  0  0
    0.6708    6.0831    1.7797 H   0  0  0  0  0  0  0  0  0  0  0  0
   -0.9793    6.6186    2.0936 H   0  0  0  0  0  0  0  0  0  0  0  0
   -0.3803    6.5490    0.4398 H   0  0  0  0  0  0  0  0  0  0  0  0
    0.0559    3.8135    6.3567 C   0  0  0  0  0  0  0  0  0  0  0  0
    0.5382   -3.3625    7.8529 C   0  0  0  0  0  0  0  0  0  0  0  0
   -4.1132    1.5557    4.5125 C   0  0  0  0  0  0  0  0  0  0  0  0
   -3.4803    0.6041    5.3043 C   0  0  0  0  0  0  0  0  0  0  0  0
   -2.2822    0.9460    5.9906 C   0  0  0  0  0  0  0  0  0  0  0  0
   -1.6394    2.1730    5.7051 C   0  0  0  0  0  0  0  0  0  0  0  0
   -2.2764    3.1051    4.8809 C   0  0  0  0  0  0  0  0  0  0  0  0
   -3.4992    2.7755    4.3535 C   0  0  0  0  0  0  0  0  0  0  0  0
   -1.6497    0.0526    6.9066 C   0  0  0  0  0  0  0  0  0  0  0  0
   -0.2440    0.1785    7.0598 C   0  0  0  0  0  0  0  0  0  0  0  0
    0.3882    1.3934    6.7015 C   0  0  2  0  0  0  0  0  0  0  0  0
   -0.3929    2.4364    6.2448 N   0  0  0  0  0  0  0  0  0  0  0  0
   -2.2936   -0.9586    7.6816 C   0  0  0  0  0  0  0  0  0  0  0  0
   -1.5235   -2.0664    8.1048 C   0  0  0  0  0  0  0  0  0  0  0  0
   -0.1634   -2.0906    7.8543 N   0  0  0  0  0  0  0  0  0  0  0  0
    0.4992   -0.9124    7.5709 C   0  0  0  0  0  0  0  0  0  0  0  0
    1.8714   -0.7543    7.7709 C   0  0  0  0  0  0  0  0  0  0  0  0
    2.4520    0.4253    7.3714 C   0  0  0  0  0  0  0  0  0  0  0  0
    1.7755    1.4880    6.8224 C   0  0  0  0  0  0  0  0  0  0  0  0
   -3.6479   -0.8432    8.0998 C   0  0  0  0  0  0  0  0  0  0  0  0
   -4.2623   -1.9150    8.7375 C   0  0  0  0  0  0  0  0  0  0  0  0
   -3.4975   -3.0221    9.0200 C   0  0  0  0  0  0  0  0  0  0  0  0
   -2.1522   -3.1229    8.7703 C   0  0  0  0  0  0  0  0  0  0  0  0
   -4.2462    0.3448    7.8887 O   0  0  0  0  0  0  0  0  0  0  0  0
   -3.9086   -0.6668    5.4299 O   0  0  0  0  0  0  0  0  0  0  0  0
   -5.0492    1.3697    4.0191 H   0  0  0  0  0  0  0  0  0  0  0  0
   -1.8478    4.0584    4.6381 H   0  0  0  0  0  0  0  0  0  0  0  0
   -5.2990   -1.9055    9.0194 H   0  0  0  0  0  0  0  0  0  0  0  0
   -1.6289   -4.0004    9.0979 H   0  0  0  0  0  0  0  0  0  0  0  0
    2.4869   -1.5036    8.2330 H   0  0  0  0  0  0  0  0  0  0  0  0
    2.3361    2.3443    6.4967 H   0  0  0  0  0  0  0  0  0  0  0  0
    0.0247   -4.2818    6.7381 C   0  0  0  0  0  0  0  0  0  0  0  0
    0.7802   -5.6047    6.7479 C   0  0  0  0  0  0  0  0  0  0  0  0
   -0.8492    4.6219    7.2941 C   0  0  0  0  0  0  0  0  0  0  0  0
   -0.3510    6.0570    7.4086 C   0  0  0  0  0  0  0  0  0  0  0  0
   -5.5836    0.5223    8.3109 C   0  0  0  0  0  0  0  0  0  0  0  0
   -5.0866   -1.0625    4.7574 C   0  0  0  0  0  0  0  0  0  0  0  0
   -4.3812    4.0567    3.3830 S   0  0  0  0  0  0  0  0  0  0  0  0
   -4.0371    5.2422    4.5029 F   0  0  0  0  0  0  0  0  0  0  0  0
   -3.0153    4.4790    2.5336 F   0  0  0  0  0  0  0  0  0  0  0  0
   -5.8253    3.7485    4.1553 F   0  0  0  0  0  0  0  0  0  0  0  0
   -5.1628    5.1893    2.5417 F   0  0  0  0  0  0  0  0  0  0  0  0
   -4.8047    2.9845    2.1849 F   0  0  0  0  0  0  0  0  0  0  0  0
   -4.3373   -4.4724    9.7632 S   0  0  0  0  0  0  0  0  0  0  0  0
   -5.6165   -4.3648    8.6999 F   0  0  0  0  0  0  0  0  0  0  0  0
   -5.1778   -3.5392   10.8534 F   0  0  0  0  0  0  0  0  0  0  0  0
   -5.0791   -5.7540   10.4024 F   0  0  0  0  0  0  0  0  0  0  0  0
   -3.5704   -5.5329    8.7308 F   0  0  0  0  0  0  0  0  0  0  0  0
   -3.1309   -4.7097   10.8834 F   0  0  0  0  0  0  0  0  0  0  0  0
    4.2658    0.5950    7.5891 S   0  0  0  0  0  0  0  0  0  0  0  0
    4.5555   -0.9423    7.0228 F   0  0  0  0  0  0  0  0  0  0  0  0
    4.4720    1.2031    6.0564 F   0  0  0  0  0  0  0  0  0  0  0  0
    5.8589    0.7438    7.7810 F   0  0  0  0  0  0  0  0  0  0  0  0
    4.1282    2.1464    8.1737 F   0  0  0  0  0  0  0  0  0  0  0  0
    4.2131    0.0013    9.1407 F   0  0  0  0  0  0  0  0  0  0  0  0
    0.4418   -3.8510    8.8260 H   0  0  0  0  0  0  0  0  0  0  0  0
    1.5949   -3.1778    7.6735 H   0  0  0  0  0  0  0  0  0  0  0  0
    0.1681   -3.7806    5.7789 H   0  0  0  0  0  0  0  0  0  0  0  0
   -1.0417   -4.4710    6.8626 H   0  0  0  0  0  0  0  0  0  0  0  0
    1.8471   -5.4417    6.6153 H   0  0  0  0  0  0  0  0  0  0  0  0
    0.4281   -6.2435    5.9432 H   0  0  0  0  0  0  0  0  0  0  0  0
    0.6238   -6.1261    7.6887 H   0  0  0  0  0  0  0  0  0  0  0  0
   -5.2318   -2.1084    5.0231 H   0  0  0  0  0  0  0  0  0  0  0  0
   -4.9752   -0.9706    3.6736 H   0  0  0  0  0  0  0  0  0  0  0  0
   -5.9508   -0.4786    5.0844 H   0  0  0  0  0  0  0  0  0  0  0  0
   -5.8388    1.5438    8.0357 H   0  0  0  0  0  0  0  0  0  0  0  0
   -5.6789    0.3981    9.3934 H   0  0  0  0  0  0  0  0  0  0  0  0
   -6.2594   -0.1720    7.8054 H   0  0  0  0  0  0  0  0  0  0  0  0
    0.0989    4.2809    5.3695 H   0  0  0  0  0  0  0  0  0  0  0  0
    1.0598    3.8205    6.7749 H   0  0  0  0  0  0  0  0  0  0  0  0
   -0.8441    4.1484    8.2777 H   0  0  0  0  0  0  0  0  0  0  0  0
   -1.8754    4.6219    6.9260 H   0  0  0  0  0  0  0  0  0  0  0  0
    0.6708    6.0831    7.7797 H   0  0  0  0  0  0  0  0  0  0  0  0
   -0.9793    6.6186    8.0936 H   0  0  0  0  0  0  0  0  0  0  0  0
   -0.3803    6.5490    6.4398 H   0  0  0  0  0  0  0  0  0  0  0  0
  1 12  1  0  0  0  0
  1 34  1  0  0  0  0
  1 69  1  0  0  0  0
  1 70  1  0  0  0  0
  2 15  1  0  0  0  0
  2 32  1  0  0  0  0
  2 56  1  0  0  0  0
  2 57  1  0  0  0  0
  3  4  2  0  0  0  0
  3  8  1  0  0  0  0
  3 26  1  0  0  0  0
  4  5  1  0  0  0  0
  4 25  1  0  0  0  0
  5  6  2  0  0  0  0
  5  9  1  0  0  0  0
  6  7  1  0  0  0  0
  6 12  1  0  0  0  0
  7  8  2  0  0  0  0
  7 27  1  0  0  0  0
  8 38  1  0  0  0  0
  9 10  2  0  0  0  0
  9 13  1  0  0  0  0
 10 16  1  0  0  0  0
 11 10  1  6  0  0  0
 11 12  1  0  0  0  0
 11 19  1  0  0  0  0
 13 14  2  0  0  0  0
 13 20  1  0  0  0  0
 14 15  1  0  0  0  0
 14 23  1  0  0  0  0
 15 16  1  0  0  0  0
 16 17  2  0  0  0  0
 17 18  1  0  0  0  0
 17 30  1  0  0  0  0
 18 19  2  0  0  0  0
 18 50  1  0  0  0  0
 19 31  1  0  0  0  0
 20 21  2  0  0  0  0
 20 24  1  0  0  0  0
 21 22  1  0  0  0  0
 21 28  1  0  0  0  0
 22 23  2  0  0  0  0
 22 44  1  0  0  0  0
 23 29  1  0  0  0  0
 24 36  1  0  0  0  0
 25 37  1  0  0  0  0
 32 33  1  0  0  0  0
 32 58  1  0  0  0  0
 32 59  1  0  0  0  0
 33 60  1  0  0  0  0
 33 61  1  0  0  0  0
 33 62  1  0  0  0  0
 34 35  1  0  0  0  0
 34 71  1  0  0  0  0
 34 72  1  0  0  0  0
 35 73  1  0  0  0  0
 35 74  1  0  0  0  0
 35 75  1  0  0  0  0
 36 66  1  0  0  0  0
 36 67  1  0  0  0  0
 36 68  1  0  0  0  0
 37 63  1  0  0  0  0
 37 64  1  0  0  0  0
 37 65  1  0  0  0  0
 38 39  1  0  0  0  0
 38 40  1  0  0  0  0
 38 41  1  0  0  0  0
 38 42  1  0  0  0  0
 38 43  1  0  0  0  0
 44 45  1  0  0  0  0
 44 46  1  0  0  0  0
 44 47  1  0  0  0  0
 44 48  1  0  0  0  0
 44 49  1  0  0  0  0
 50 51  1  0  0  0  0
 50 52  1  0  0  0  0
 50 53  1  0  0  0  0
 50 54  1  0  0  0  0
 50 55  1  0  0  0  0
 76 87  1  0  0  0  0
 76109  1  0  0  0  0
 76144  1  0  0  0  0
 76145  1  0  0  0  0
 77 90  1  0  0  0  0
 77107  1  0  0  0  0
 77131  1  0  0  0  0
 77132  1  0  0  0  0
 78 79  2  0  0  0  0
 78 83  1  0  0  0  0
 78101  1  0  0  0  0
 79 80  1  0  0  0  0
 79100  1  0  0  0  0
 80 81  2  0  0  0  0
 80 84  1  0  0  0  0
 81 82  1  0  0  0  0
 81 87  1  0  0  0  0
 82 83  2  0  0  0  0
 82102  1  0  0  0  0
 83113  1  0  0  0  0
 84 85  2  0  0  0  0
 84 88  1  0  0  0  0
 85 91  1  0  0  0  0
 86 85  1  6  0  0  0
 86 87  1  0  0  0  0
 86 94  1  0  0  0  0
 88 89  2  0  0  0  0
 88 95  1  0  0  0  0
 89 90  1  0  0  0  0
 89 98  1  0  0  0  0
 90 91  1  0  0  0  0
 91 92  2  0  0  0  0
 92 93  1  0  0  0  0
 92105  1  0  0  0  0
 93 94  2  0  0  0  0
 93125  1  0  0  0  0
 94106  1  0  0  0  0
 95 96  2  0  0  0  0
 95 99  1  0  0  0  0
 96 97  1  0  0  0  0
 96103  1  0  0  0  0
 97 98  2  0  0  0  0
 97119  1  0  0  0  0
 98104  1  0  0  0  0
 99111  1  0  0  0  0
100112  1  0  0  0  0
107108  1  0  0  0  0
107133  1  0  0  0  0
107134  1  0  0  0  0
108135  1  0  0  0  0
108136  1  0  0  0  0
108137  1  0  0  0  0
109110  1  0  0  0  0
109146  1  0  0  0  0
109147  1  0  0  0  0
110148  1  0  0  0  0
110149  1  0  0  0  0
110150  1  0  0  0  0
111141  1  0  0  0  0
111142  1  0  0  0  0
111143  1  0  0  0  0
112138  1  0  0  0  0
112139  1  0  0  0  0
112140  1  0  0  0  0
113114  1  0  0  0  0
113115  1  0  0  0  0
113116  1  0  0  0  0
113117  1  0  0  0  0
113118  1  0  0  0  0
119120  1  0  0  0  0
119121  1  0  0  0  0
119122  1  0  0  0  0
119123  1  0  0  0  0
119124  1  0  0  0  0
125126  1  0  0  0  0
125127  1  0  0  0  0
125128  1  0  0  0  0
125129  1  0  0  0  0
125130  1  0  0  0  0
M  END
