 energy: -290.543947524013 gnorm: 0.000181822184 xtb: 6.7.1 (edcfbbe)
          03062514473D

109120  0     0  0            999 V2000
    1.9462    1.4962    1.9819 C   0  0  0  0  0  0  0  0  0  0  0  0
    1.8520    0.1930    1.4960 C   0  0  0  0  0  0  0  0  0  0  0  0
    3.0119   -0.4967    1.0531 C   0  0  0  0  0  0  0  0  0  0  0  0
    4.2231    0.2749    0.9662 C   0  0  0  0  0  0  0  0  0  0  0  0
    4.2755    1.6214    1.4239 C   0  0  0  0  0  0  0  0  0  0  0  0
    3.1588    2.1521    1.9747 C   0  0  0  0  0  0  0  0  0  0  0  0
    3.0918   -1.9241    0.8671 C   0  0  0  0  0  0  0  0  0  0  0  0
    4.4111   -2.4181    0.7115 C   0  0  0  0  0  0  0  0  0  0  0  0
    5.4998   -1.5330    0.4329 C   0  0  0  0  0  0  0  0  0  0  0  0
    5.3815   -0.2191    0.5368 N   0  0  0  0  0  0  0  0  0  0  0  0
    2.0470   -2.9290    0.9835 C   0  0  0  0  0  0  0  0  0  0  0  0
    2.5235   -4.2090    1.4612 C   0  0  0  0  0  0  0  0  0  0  0  0
    3.7880   -4.6091    1.4176 N   0  0  0  0  0  0  0  0  0  0  0  0
    4.7024   -3.8011    0.9008 C   0  0  0  0  0  0  0  0  0  0  0  0
    5.9957   -4.3035    0.6338 C   0  0  0  0  0  0  0  0  0  0  0  0
    6.9553   -3.4206    0.2155 C   0  0  0  0  0  0  0  0  0  0  0  0
    6.7723   -2.0703    0.1123 C   0  0  0  0  0  0  0  0  0  0  0  0
    0.6648   -2.8977    0.6060 C   0  0  0  0  0  0  0  0  0  0  0  0
   -0.1570   -3.9749    0.9674 C   0  0  0  0  0  0  0  0  0  0  0  0
    0.3152   -5.0462    1.6857 C   0  0  0  0  0  0  0  0  0  0  0  0
    1.6354   -5.2170    1.9308 C   0  0  0  0  0  0  0  0  0  0  0  0
    0.6678   -0.3847    1.5426 O   0  0  0  0  0  0  0  0  0  0  0  0
   -3.1914   -1.9155    0.5595 C   0  0  0  0  0  0  0  0  0  0  0  0
   -2.6336   -0.6495    0.3495 C   0  0  0  0  0  0  0  0  0  0  0  0
   -3.3123    0.3062   -0.4460 C   0  0  0  0  0  0  0  0  0  0  0  0
   -4.5589   -0.1074   -1.0310 C   0  0  0  0  0  0  0  0  0  0  0  0
   -4.9798   -1.4648   -0.9767 C   0  0  0  0  0  0  0  0  0  0  0  0
   -4.3086   -2.3008   -0.1501 C   0  0  0  0  0  0  0  0  0  0  0  0
   -2.9492    1.7041   -0.5379 C   0  0  0  0  0  0  0  0  0  0  0  0
   -4.0535    2.5472   -0.8300 C   0  0  0  0  0  0  0  0  0  0  0  0
   -5.2741    2.0200   -1.3548 C   0  0  0  0  0  0  0  0  0  0  0  0
   -5.4478    0.7221   -1.5670 N   0  0  0  0  0  0  0  0  0  0  0  0
   -1.6674    2.3567   -0.3602 C   0  0  0  0  0  0  0  0  0  0  0  0
   -1.7383    3.7920   -0.1800 C   0  0  0  0  0  0  0  0  0  0  0  0
   -2.8587    4.5077   -0.1640 N   0  0  0  0  0  0  0  0  0  0  0  0
   -3.9816    3.9478   -0.5792 C   0  0  0  0  0  0  0  0  0  0  0  0
   -5.1105    4.7767   -0.7876 C   0  0  0  0  0  0  0  0  0  0  0  0
   -6.2350    4.2123   -1.3211 C   0  0  0  0  0  0  0  0  0  0  0  0
   -6.3553    2.8874   -1.6399 C   0  0  0  0  0  0  0  0  0  0  0  0
   -0.3480    1.8093   -0.5362 C   0  0  0  0  0  0  0  0  0  0  0  0
    0.7325    2.7074   -0.6076 C   0  0  0  0  0  0  0  0  0  0  0  0
    0.5938    4.0617   -0.4569 C   0  0  0  0  0  0  0  0  0  0  0  0
   -0.5926    4.6368   -0.1677 C   0  0  0  0  0  0  0  0  0  0  0  0
   -1.5167   -0.3607    0.9914 O   0  0  0  0  0  0  0  0  0  0  0  0
   -0.2075   -0.5396    0.3967 B   0  0  0  0  0  0  0  0  0  0  0  0
    0.0790   -1.9342   -0.1934 N   0  0  0  0  0  0  0  0  0  0  0  0
    0.0173   -3.3717   -2.2099 C   0  0  0  0  0  0  0  0  0  0  0  0
   -0.7428   -2.4137   -1.2928 C   0  0  0  0  0  0  0  0  0  0  0  0
   -0.0386    0.4865   -0.7572 N   0  0  0  0  0  0  0  0  0  0  0  0
    0.8276    0.8415   -3.0498 C   0  0  0  0  0  0  0  0  0  0  0  0
    1.0661    0.2227   -1.6757 C   0  0  0  0  0  0  0  0  0  0  0  0
   -7.6925    5.3097   -1.6221 S   0  0  0  0  0  0  0  0  0  0  0  0
   -6.7611    6.4999   -2.3191 F   0  0  0  0  0  0  0  0  0  0  0  0
   -7.5392    6.0621   -0.1462 F   0  0  0  0  0  0  0  0  0  0  0  0
   -8.9711    6.2710   -1.8865 F   0  0  0  0  0  0  0  0  0  0  0  0
   -7.9810    4.6579   -3.1272 F   0  0  0  0  0  0  0  0  0  0  0  0
   -8.7582    4.2197   -0.9542 F   0  0  0  0  0  0  0  0  0  0  0  0
    2.0770    5.0628   -0.9461 S   0  0  0  0  0  0  0  0  0  0  0  0
    3.1397    3.9685   -0.2536 F   0  0  0  0  0  0  0  0  0  0  0  0
    2.0708    6.1056    0.3236 F   0  0  0  0  0  0  0  0  0  0  0  0
    3.3796    5.8625   -1.4865 F   0  0  0  0  0  0  0  0  0  0  0  0
    1.1377    6.1583   -1.7904 F   0  0  0  0  0  0  0  0  0  0  0  0
    2.1894    4.1624   -2.3695 F   0  0  0  0  0  0  0  0  0  0  0  0
   -4.8353   -4.0640    0.0154 S   0  0  0  0  0  0  0  0  0  0  0  0
   -6.4527   -3.6789    0.1087 F   0  0  0  0  0  0  0  0  0  0  0  0
   -4.7328   -4.0366    1.6627 F   0  0  0  0  0  0  0  0  0  0  0  0
   -5.2687   -5.6137    0.1235 F   0  0  0  0  0  0  0  0  0  0  0  0
   -3.2556   -4.5784   -0.1226 F   0  0  0  0  0  0  0  0  0  0  0  0
   -4.9934   -4.2225   -1.6421 F   0  0  0  0  0  0  0  0  0  0  0  0
   -0.9344   -6.2959    2.2266 S   0  0  0  0  0  0  0  0  0  0  0  0
   -1.4484   -6.5584    0.6755 F   0  0  0  0  0  0  0  0  0  0  0  0
   -2.0957   -5.1410    2.4781 F   0  0  0  0  0  0  0  0  0  0  0  0
   -2.0173   -7.3920    2.7131 F   0  0  0  0  0  0  0  0  0  0  0  0
   -0.4668   -6.1580    3.8214 F   0  0  0  0  0  0  0  0  0  0  0  0
    0.1377   -7.5650    2.0557 F   0  0  0  0  0  0  0  0  0  0  0  0
    8.6302   -4.0976   -0.1786 S   0  0  0  0  0  0  0  0  0  0  0  0
    7.9964   -5.3573   -1.0668 F   0  0  0  0  0  0  0  0  0  0  0  0
    8.6562   -5.0718    1.1705 F   0  0  0  0  0  0  0  0  0  0  0  0
   10.0947   -4.6954   -0.5354 F   0  0  0  0  0  0  0  0  0  0  0  0
    8.7586   -3.1879   -1.5677 F   0  0  0  0  0  0  0  0  0  0  0  0
    9.4174   -2.9035    0.6703 F   0  0  0  0  0  0  0  0  0  0  0  0
    3.1914    3.7792    2.8518 S   0  0  0  0  0  0  0  0  0  0  0  0
    4.4709    3.3223    3.8211 F   0  0  0  0  0  0  0  0  0  0  0  0
    3.1475    5.1870    3.6525 F   0  0  0  0  0  0  0  0  0  0  0  0
    1.8411    4.3007    2.0018 F   0  0  0  0  0  0  0  0  0  0  0  0
    4.2821    4.5036    1.8523 F   0  0  0  0  0  0  0  0  0  0  0  0
    2.1615    3.2125    4.0418 F   0  0  0  0  0  0  0  0  0  0  0  0
   -0.6089   -3.6151   -3.0630 H   0  0  0  0  0  0  0  0  0  0  0  0
    0.2567   -4.2941   -1.6882 H   0  0  0  0  0  0  0  0  0  0  0  0
    0.9408   -2.9234   -2.5701 H   0  0  0  0  0  0  0  0  0  0  0  0
   -1.0570   -1.5262   -1.8456 H   0  0  0  0  0  0  0  0  0  0  0  0
   -1.6506   -2.9223   -0.9547 H   0  0  0  0  0  0  0  0  0  0  0  0
    1.1245   -0.8598   -1.7673 H   0  0  0  0  0  0  0  0  0  0  0  0
    2.0377    0.5440   -1.2802 H   0  0  0  0  0  0  0  0  0  0  0  0
   -0.1631    0.5760   -3.4110 H   0  0  0  0  0  0  0  0  0  0  0  0
    1.5675    0.4586   -3.7472 H   0  0  0  0  0  0  0  0  0  0  0  0
    0.9122    1.9241   -3.0257 H   0  0  0  0  0  0  0  0  0  0  0  0
   -5.8714   -1.7512   -1.5045 H   0  0  0  0  0  0  0  0  0  0  0  0
   -7.2567    2.4760   -2.0574 H   0  0  0  0  0  0  0  0  0  0  0  0
   -5.0429    5.8234   -0.5524 H   0  0  0  0  0  0  0  0  0  0  0  0
    5.2120    2.1464    1.3748 H   0  0  0  0  0  0  0  0  0  0  0  0
    6.1957   -5.3508    0.7697 H   0  0  0  0  0  0  0  0  0  0  0  0
    7.5687   -1.4002   -0.1569 H   0  0  0  0  0  0  0  0  0  0  0  0
    2.0527   -6.1009    2.3777 H   0  0  0  0  0  0  0  0  0  0  0  0
   -0.7380    5.6957   -0.0582 H   0  0  0  0  0  0  0  0  0  0  0  0
   -1.1957   -3.9677    0.6990 H   0  0  0  0  0  0  0  0  0  0  0  0
    1.0602    1.9563    2.3813 H   0  0  0  0  0  0  0  0  0  0  0  0
    1.7219    2.3332   -0.7815 H   0  0  0  0  0  0  0  0  0  0  0  0
   -2.7347   -2.5723    1.2798 H   0  0  0  0  0  0  0  0  0  0  0  0
  1  2  2  0  0  0  0
  1107  1  0  0  0  0
  2  3  1  0  0  0  0
  3  4  2  0  0  0  0
  3  7  1  0  0  0  0
  4  5  1  0  0  0  0
  5  6  2  0  0  0  0
  5101  1  0  0  0  0
  6  1  1  0  0  0  0
  6 82  1  0  0  0  0
  7  8  1  0  0  0  0
  7 11  2  0  0  0  0
  8  9  1  0  0  0  0
  9 10  2  0  0  0  0
 10  4  1  0  0  0  0
 11 12  1  0  0  0  0
 11 18  1  0  0  0  0
 12 13  2  0  0  0  0
 13 14  1  0  0  0  0
 14  8  1  0  0  0  0
 14 15  2  0  0  0  0
 15 16  1  0  0  0  0
 15102  1  0  0  0  0
 16 76  1  0  0  0  0
 16 17  2  0  0  0  0
 17  9  1  0  0  0  0
 17103  1  0  0  0  0
 18 46  1  0  0  0  0
 18 19  2  0  0  0  0
 19 20  1  0  0  0  0
 19106  1  0  0  0  0
 20 70  1  0  0  0  0
 20 21  2  0  0  0  0
 21 12  1  0  0  0  0
 21104  1  0  0  0  0
 22  2  1  0  0  0  0
 23 24  2  0  0  0  0
 23109  1  0  0  0  0
 24 25  1  0  0  0  0
 24 44  1  0  0  0  0
 25 26  2  0  0  0  0
 25 29  1  0  0  0  0
 26 27  1  0  0  0  0
 27 28  2  0  0  0  0
 27 98  1  0  0  0  0
 28 64  1  0  0  0  0
 28 23  1  0  0  0  0
 29 33  2  0  0  0  0
 30 29  1  0  0  0  0
 30 31  1  0  0  0  0
 31 32  2  0  0  0  0
 32 26  1  0  0  0  0
 33 34  1  0  0  0  0
 33 40  1  0  0  0  0
 34 35  2  0  0  0  0
 35 36  1  0  0  0  0
 36 30  1  0  0  0  0
 36 37  2  0  0  0  0
 37 38  1  0  0  0  0
 37100  1  0  0  0  0
 38 52  1  0  0  0  0
 38 39  2  0  0  0  0
 39 31  1  0  0  0  0
 39 99  1  0  0  0  0
 40 49  1  0  0  0  0
 40 41  2  0  0  0  0
 41 42  1  0  0  0  0
 41108  1  0  0  0  0
 42 58  1  0  0  0  0
 42 43  2  0  0  0  0
 43 34  1  0  0  0  0
 43105  1  0  0  0  0
 45 46  1  0  0  0  0
 45 49  1  0  0  0  0
 45 22  1  0  0  0  0
 45 44  1  0  0  0  0
 46 48  1  0  0  0  0
 47 48  1  0  0  0  0
 47 88  1  0  0  0  0
 47 89  1  0  0  0  0
 47 90  1  0  0  0  0
 48 91  1  0  0  0  0
 48 92  1  0  0  0  0
 49 51  1  0  0  0  0
 50 51  1  0  0  0  0
 50 95  1  0  0  0  0
 50 96  1  0  0  0  0
 50 97  1  0  0  0  0
 51 93  1  0  0  0  0
 51 94  1  0  0  0  0
 52 53  1  0  0  0  0
 52 54  1  0  0  0  0
 52 55  1  0  0  0  0
 52 56  1  0  0  0  0
 52 57  1  0  0  0  0
 58 59  1  0  0  0  0
 58 60  1  0  0  0  0
 58 61  1  0  0  0  0
 58 62  1  0  0  0  0
 58 63  1  0  0  0  0
 64 65  1  0  0  0  0
 64 66  1  0  0  0  0
 64 67  1  0  0  0  0
 64 68  1  0  0  0  0
 64 69  1  0  0  0  0
 70 71  1  0  0  0  0
 70 72  1  0  0  0  0
 70 73  1  0  0  0  0
 70 74  1  0  0  0  0
 70 75  1  0  0  0  0
 76 77  1  0  0  0  0
 76 78  1  0  0  0  0
 76 79  1  0  0  0  0
 76 80  1  0  0  0  0
 76 81  1  0  0  0  0
 82 83  1  0  0  0  0
 82 84  1  0  0  0  0
 82 85  1  0  0  0  0
 82 86  1  0  0  0  0
 82 87  1  0  0  0  0
M  CHG  1   1  -1
M  END
