energy: -290.157969063744 gnorm: 0.000294137718 xtb: 6.7.1 (edcfbbe)_energy: -290.157969063744 gnorm: 0.000294137718 xtb: 6.7.1 (edcfbbe)
 OpenBabel03062514493D

218240  0  0  0  0  0  0  0  0999 V2000
    1.9640    1.4791    1.9521 C   0  0  0  0  0  0  0  0  0  0  0  0
    1.8640    0.1759    1.4659 C   0  0  0  0  0  0  0  0  0  0  0  0
    3.0215   -0.5258    1.0408 C   0  0  0  0  0  0  0  0  0  0  0  0
    4.2431    0.2362    0.9802 C   0  0  0  0  0  0  0  0  0  0  0  0
    4.3000    1.5847    1.4338 C   0  0  0  0  0  0  0  0  0  0  0  0
    3.1800    2.1322    1.9657 C   0  0  0  0  0  0  0  0  0  0  0  0
    3.0863   -1.9535    0.8518 C   0  0  0  0  0  0  0  0  0  0  0  0
    4.4031   -2.4606    0.7166 C   0  3  0  0  0  0  0  0  0  0  0  0
    5.5088   -1.5871    0.4710 C   0  0  0  0  0  0  0  0  0  0  0  0
    5.4030   -0.2737    0.5821 N   0  0  0  0  0  0  0  0  0  0  0  0
    2.0291   -2.9488    0.9492 C   0  0  0  0  0  0  0  0  0  0  0  0
    2.4885   -4.2367    1.4312 C   0  0  0  0  0  0  0  0  0  0  0  0
    3.7473   -4.6469    1.3946 N   0  0  0  0  0  0  0  0  0  0  0  0
    4.6791   -3.8469    0.8996 C   0  0  0  0  0  0  0  0  0  0  0  0
    5.9752   -4.3599    0.6622 C   0  0  0  0  0  0  0  0  0  0  0  0
    6.9619   -3.4904    0.2724 C   0  0  0  0  0  0  0  0  0  0  0  0
    6.7833   -2.1360    0.1776 C   0  0  0  0  0  0  0  0  0  0  0  0
    0.6511   -2.9130    0.5548 C   0  0  0  0  0  0  0  0  0  0  0  0
   -0.1768   -3.9901    0.9039 C   0  0  0  0  0  0  0  0  0  0  0  0
    0.2709   -5.0682    1.6318 C   0  0  0  0  0  0  0  0  0  0  0  0
    1.5894   -5.2419    1.8901 C   0  0  0  0  0  0  0  0  0  0  0  0
    0.6758   -0.3932    1.4956 O   0  0  0  0  0  0  0  0  0  0  0  0
   -3.2149   -1.8863    0.5417 C   0  0  0  0  0  0  0  0  0  0  0  0
   -2.6392   -0.6266    0.3340 C   0  0  0  0  0  0  0  0  0  0  0  0
   -3.3145    0.3471   -0.4404 C   0  0  0  0  0  0  0  0  0  0  0  0
   -4.5848   -0.0437   -0.9959 C   0  0  0  0  0  0  0  0  0  0  0  0
   -5.0273   -1.3967   -0.9474 C   0  0  0  0  0  0  0  0  0  0  0  0
   -4.3537   -2.2571   -0.1465 C   0  0  0  0  0  0  0  0  0  0  0  0
   -2.9288    1.7389   -0.5333 C   0  0  0  0  0  0  0  0  0  0  0  0
   -4.0252    2.6023   -0.7957 C   0  0  1  0  0  0  0  0  0  0  0  0
   -5.2724    2.0999   -1.2795 C   0  0  0  0  0  0  0  0  0  0  0  0
   -5.4759    0.8059   -1.4861 N   0  0  0  0  0  0  0  0  0  0  0  0
   -1.6324    2.3698   -0.3824 C   0  0  0  0  0  0  0  0  0  0  0  0
   -1.6727    3.8087   -0.2030 C   0  0  0  0  0  0  0  0  0  0  0  0
   -2.7778    4.5427   -0.1765 N   0  0  0  0  0  0  0  0  0  0  0  0
   -3.9221    4.0023   -0.5549 C   0  0  0  0  0  0  0  0  0  0  0  0
   -5.0433    4.8507   -0.7277 C   0  0  0  0  0  0  0  0  0  0  0  0
   -6.2027    4.3144   -1.2203 C   0  0  0  0  0  0  0  0  0  0  0  0
   -6.3467    2.9866   -1.5301 C   0  0  0  0  0  0  0  0  0  0  0  0
   -0.3242    1.8047   -0.5800 C   0  0  0  0  0  0  0  0  0  0  0  0
    0.7682    2.6877   -0.6654 C   0  0  0  0  0  0  0  0  0  0  0  0
    0.6647    4.0472   -0.5123 C   0  0  0  0  0  0  0  0  0  0  0  0
   -0.5123    4.6359   -0.2047 C   0  0  0  0  0  0  0  0  0  0  0  0
   -1.5062   -0.3656    0.9576 O   0  0  0  0  0  0  0  0  0  0  0  0
   -0.2044   -0.5422    0.3620 B   0  5  2  0  0  0  0  0  0  0  0  0
    0.0641   -1.9428   -0.2343 N   0  0  0  0  0  0  0  0  0  0  0  0
   -0.0971   -3.4050   -2.2345 C   0  0  0  0  0  0  0  0  0  0  0  0
   -0.7890   -2.4000   -1.3154 C   0  0  0  0  0  0  0  0  0  0  0  0
   -0.0278    0.4783   -0.7959 N   0  0  0  0  0  0  0  0  0  0  0  0
    0.8356    0.8205   -3.0951 C   0  0  0  0  0  0  0  0  0  0  0  0
    1.0651    0.1955   -1.7226 C   0  0  0  0  0  0  0  0  0  0  0  0
   -7.6530    5.4375   -1.4696 S   0  0  0  0  0  0  0  0  0  0  0  0
   -6.7106    6.5967   -2.1789 F   0  0  0  0  0  0  0  0  0  0  0  0
   -7.4228    6.1574    0.0007 F   0  0  0  0  0  0  0  0  0  0  0  0
   -8.9125    6.4108   -1.6855 F   0  0  0  0  0  0  0  0  0  0  0  0
   -7.9760    4.7882   -2.9568 F   0  0  0  0  0  0  0  0  0  0  0  0
   -8.6885    4.3494   -0.7770 F   0  0  0  0  0  0  0  0  0  0  0  0
    2.1722    5.0097   -1.0025 S   0  0  0  0  0  0  0  0  0  0  0  0
    3.1845    3.8733   -0.3053 F   0  0  0  0  0  0  0  0  0  0  0  0
    2.1903    6.0262    0.2738 F   0  0  0  0  0  0  0  0  0  0  0  0
    3.4923    5.7561   -1.5368 F   0  0  0  0  0  0  0  0  0  0  0  0
    1.2566    6.1158   -1.8333 F   0  0  0  0  0  0  0  0  0  0  0  0
    2.2471    4.0964   -2.4127 F   0  0  0  0  0  0  0  0  0  0  0  0
   -4.8803   -4.0232    0.0085 S   0  0  0  0  0  0  0  0  0  0  0  0
   -6.4801   -3.6327    0.1334 F   0  0  0  0  0  0  0  0  0  0  0  0
   -4.7320   -3.9999    1.6450 F   0  0  0  0  0  0  0  0  0  0  0  0
   -5.2892   -5.5674    0.1062 F   0  0  0  0  0  0  0  0  0  0  0  0
   -3.2931   -4.5080   -0.1626 F   0  0  0  0  0  0  0  0  0  0  0  0
   -5.0520   -4.1458   -1.6409 F   0  0  0  0  0  0  0  0  0  0  0  0
   -1.0064   -6.3010    2.1504 S   0  0  0  0  0  0  0  0  0  0  0  0
   -1.5076   -6.5038    0.5921 F   0  0  0  0  0  0  0  0  0  0  0  0
   -2.1259   -5.1088    2.3996 F   0  0  0  0  0  0  0  0  0  0  0  0
   -2.1157   -7.3644    2.6047 F   0  0  0  0  0  0  0  0  0  0  0  0
   -0.5403   -6.1821    3.7345 F   0  0  0  0  0  0  0  0  0  0  0  0
    0.0431   -7.5688    1.9583 F   0  0  0  0  0  0  0  0  0  0  0  0
    8.6412   -4.1801   -0.0898 S   0  0  0  0  0  0  0  0  0  0  0  0
    7.9959   -5.4197   -0.9790 F   0  0  0  0  0  0  0  0  0  0  0  0
    8.6111   -5.1387    1.2570 F   0  0  0  0  0  0  0  0  0  0  0  0
   10.0940   -4.7824   -0.4167 F   0  0  0  0  0  0  0  0  0  0  0  0
    8.7765   -3.2671   -1.4641 F   0  0  0  0  0  0  0  0  0  0  0  0
    9.3937   -2.9873    0.7714 F   0  0  0  0  0  0  0  0  0  0  0  0
    3.1971    3.7701    2.8241 S   0  0  0  0  0  0  0  0  0  0  0  0
    4.4665    3.3329    3.7932 F   0  0  0  0  0  0  0  0  0  0  0  0
    3.1234    5.1824    3.5882 F   0  0  0  0  0  0  0  0  0  0  0  0
    1.8489    4.2464    1.9422 F   0  0  0  0  0  0  0  0  0  0  0  0
    4.2704    4.4730    1.8050 F   0  0  0  0  0  0  0  0  0  0  0  0
    2.1611    3.2007    3.9967 F   0  0  0  0  0  0  0  0  0  0  0  0
   -0.7527   -3.6232   -3.0720 H   0  0  0  0  0  0  0  0  0  0  0  0
    0.1060   -4.3360   -1.7137 H   0  0  0  0  0  0  0  0  0  0  0  0
    0.8384   -3.0045   -2.6194 H   0  0  0  0  0  0  0  0  0  0  0  0
   -1.0749   -1.5064   -1.8744 H   0  0  0  0  0  0  0  0  0  0  0  0
   -1.7157   -2.8581   -0.9518 H   0  0  0  0  0  0  0  0  0  0  0  0
    1.1041   -0.8885   -1.8161 H   0  0  0  0  0  0  0  0  0  0  0  0
    2.0438    0.4965   -1.3286 H   0  0  0  0  0  0  0  0  0  0  0  0
   -0.1598    0.5746   -3.4567 H   0  0  0  0  0  0  0  0  0  0  0  0
    1.5660    0.4218   -3.7933 H   0  0  0  0  0  0  0  0  0  0  0  0
    0.9438    1.9009   -3.0755 H   0  0  0  0  0  0  0  0  0  0  0  0
   -5.9355   -1.6609   -1.4604 H   0  0  0  0  0  0  0  0  0  0  0  0
   -7.2668    2.5883   -1.9231 H   0  0  0  0  0  0  0  0  0  0  0  0
   -4.9475    5.8966   -0.4907 H   0  0  0  0  0  0  0  0  0  0  0  0
    5.2433    2.1004    1.3973 H   0  0  0  0  0  0  0  0  0  0  0  0
    6.1594   -5.4116    0.7996 H   0  0  0  0  0  0  0  0  0  0  0  0
    7.5902   -1.4688   -0.0738 H   0  0  0  0  0  0  0  0  0  0  0  0
    1.9989   -6.1277    2.3434 H   0  0  0  0  0  0  0  0  0  0  0  0
   -0.6402    5.6966   -0.0819 H   0  0  0  0  0  0  0  0  0  0  0  0
   -1.2137   -3.9770    0.6254 H   0  0  0  0  0  0  0  0  0  0  0  0
    1.0760    1.9439    2.3437 H   0  0  0  0  0  0  0  0  0  0  0  0
    1.7490    2.2945   -0.8487 H   0  0  0  0  0  0  0  0  0  0  0  0
   -2.7592   -2.5533    1.2550 H   0  0  0  0  0  0  0  0  0  0  0  0
    1.9640    1.4791   10.9521 C   0  0  0  0  0  0  0  0  0  0  0  0
    1.8640    0.1759   10.4659 C   0  0  0  0  0  0  0  0  0  0  0  0
    3.0215   -0.5258   10.0408 C   0  0  0  0  0  0  0  0  0  0  0  0
    4.2431    0.2362    9.9802 C   0  0  0  0  0  0  0  0  0  0  0  0
    4.3000    1.5847   10.4338 C   0  0  0  0  0  0  0  0  0  0  0  0
    3.1800    2.1322   10.9657 C   0  0  0  0  0  0  0  0  0  0  0  0
    3.0863   -1.9535    9.8518 C   0  0  0  0  0  0  0  0  0  0  0  0
    4.4031   -2.4606    9.7166 C   0  3  0  0  0  0  0  0  0  0  0  0
    5.5088   -1.5871    9.4710 C   0  0  0  0  0  0  0  0  0  0  0  0
    5.4030   -0.2737    9.5821 N   0  0  0  0  0  0  0  0  0  0  0  0
    2.0291   -2.9488    9.9492 C   0  0  0  0  0  0  0  0  0  0  0  0
    2.4885   -4.2367   10.4312 C   0  0  0  0  0  0  0  0  0  0  0  0
    3.7473   -4.6469   10.3946 N   0  0  0  0  0  0  0  0  0  0  0  0
    4.6791   -3.8469    9.8996 C   0  0  0  0  0  0  0  0  0  0  0  0
    5.9752   -4.3599    9.6622 C   0  0  0  0  0  0  0  0  0  0  0  0
    6.9619   -3.4904    9.2724 C   0  0  0  0  0  0  0  0  0  0  0  0
    6.7833   -2.1360    9.1776 C   0  0  0  0  0  0  0  0  0  0  0  0
    0.6511   -2.9130    9.5548 C   0  0  0  0  0  0  0  0  0  0  0  0
   -0.1768   -3.9901    9.9039 C   0  0  0  0  0  0  0  0  0  0  0  0
    0.2709   -5.0682   10.6318 C   0  0  0  0  0  0  0  0  0  0  0  0
    1.5894   -5.2419   10.8901 C   0  0  0  0  0  0  0  0  0  0  0  0
    0.6758   -0.3932   10.4956 O   0  0  0  0  0  0  0  0  0  0  0  0
   -3.2149   -1.8863    9.5417 C   0  0  0  0  0  0  0  0  0  0  0  0
   -2.6392   -0.6266    9.3340 C   0  0  0  0  0  0  0  0  0  0  0  0
   -3.3145    0.3471    8.5596 C   0  0  0  0  0  0  0  0  0  0  0  0
   -4.5848   -0.0437    8.0041 C   0  0  0  0  0  0  0  0  0  0  0  0
   -5.0273   -1.3967    8.0526 C   0  0  0  0  0  0  0  0  0  0  0  0
   -4.3537   -2.2571    8.8535 C   0  0  0  0  0  0  0  0  0  0  0  0
   -2.9288    1.7389    8.4667 C   0  0  0  0  0  0  0  0  0  0  0  0
   -4.0252    2.6023    8.2043 C   0  0  1  0  0  0  0  0  0  0  0  0
   -5.2724    2.0999    7.7205 C   0  0  0  0  0  0  0  0  0  0  0  0
   -5.4759    0.8059    7.5139 N   0  0  0  0  0  0  0  0  0  0  0  0
   -1.6324    2.3698    8.6176 C   0  0  0  0  0  0  0  0  0  0  0  0
   -1.6727    3.8087    8.7970 C   0  0  0  0  0  0  0  0  0  0  0  0
   -2.7778    4.5427    8.8235 N   0  0  0  0  0  0  0  0  0  0  0  0
   -3.9221    4.0023    8.4451 C   0  0  0  0  0  0  0  0  0  0  0  0
   -5.0433    4.8507    8.2723 C   0  0  0  0  0  0  0  0  0  0  0  0
   -6.2027    4.3144    7.7797 C   0  0  0  0  0  0  0  0  0  0  0  0
   -6.3467    2.9866    7.4699 C   0  0  0  0  0  0  0  0  0  0  0  0
   -0.3242    1.8047    8.4200 C   0  0  0  0  0  0  0  0  0  0  0  0
    0.7682    2.6877    8.3346 C   0  0  0  0  0  0  0  0  0  0  0  0
    0.6647    4.0472    8.4877 C   0  0  0  0  0  0  0  0  0  0  0  0
   -0.5123    4.6359    8.7953 C   0  0  0  0  0  0  0  0  0  0  0  0
   -1.5062   -0.3656    9.9576 O   0  0  0  0  0  0  0  0  0  0  0  0
   -0.2044   -0.5422    9.3620 B   0  5  2  0  0  0  0  0  0  0  0  0
    0.0641   -1.9428    8.7657 N   0  0  0  0  0  0  0  0  0  0  0  0
   -0.0971   -3.4050    6.7655 C   0  0  0  0  0  0  0  0  0  0  0  0
   -0.7890   -2.4000    7.6846 C   0  0  0  0  0  0  0  0  0  0  0  0
   -0.0278    0.4783    8.2041 N   0  0  0  0  0  0  0  0  0  0  0  0
    0.8356    0.8205    5.9049 C   0  0  0  0  0  0  0  0  0  0  0  0
    1.0651    0.1955    7.2774 C   0  0  0  0  0  0  0  0  0  0  0  0
   -7.6530    5.4375    7.5304 S   0  0  0  0  0  0  0  0  0  0  0  0
   -6.7106    6.5967    6.8211 F   0  0  0  0  0  0  0  0  0  0  0  0
   -7.4228    6.1574    9.0007 F   0  0  0  0  0  0  0  0  0  0  0  0
   -8.9125    6.4108    7.3145 F   0  0  0  0  0  0  0  0  0  0  0  0
   -7.9760    4.7882    6.0432 F   0  0  0  0  0  0  0  0  0  0  0  0
   -8.6885    4.3494    8.2230 F   0  0  0  0  0  0  0  0  0  0  0  0
    2.1722    5.0097    7.9975 S   0  0  0  0  0  0  0  0  0  0  0  0
    3.1845    3.8733    8.6947 F   0  0  0  0  0  0  0  0  0  0  0  0
    2.1903    6.0262    9.2738 F   0  0  0  0  0  0  0  0  0  0  0  0
    3.4923    5.7561    7.4632 F   0  0  0  0  0  0  0  0  0  0  0  0
    1.2566    6.1158    7.1667 F   0  0  0  0  0  0  0  0  0  0  0  0
    2.2471    4.0964    6.5873 F   0  0  0  0  0  0  0  0  0  0  0  0
   -4.8803   -4.0232    9.0085 S   0  0  0  0  0  0  0  0  0  0  0  0
   -6.4801   -3.6327    9.1334 F   0  0  0  0  0  0  0  0  0  0  0  0
   -4.7320   -3.9999   10.6450 F   0  0  0  0  0  0  0  0  0  0  0  0
   -5.2892   -5.5674    9.1062 F   0  0  0  0  0  0  0  0  0  0  0  0
   -3.2931   -4.5080    8.8374 F   0  0  0  0  0  0  0  0  0  0  0  0
   -5.0520   -4.1458    7.3591 F   0  0  0  0  0  0  0  0  0  0  0  0
   -1.0064   -6.3010   11.1504 S   0  0  0  0  0  0  0  0  0  0  0  0
   -1.5076   -6.5038    9.5921 F   0  0  0  0  0  0  0  0  0  0  0  0
   -2.1259   -5.1088   11.3996 F   0  0  0  0  0  0  0  0  0  0  0  0
   -2.1157   -7.3644   11.6047 F   0  0  0  0  0  0  0  0  0  0  0  0
   -0.5403   -6.1821   12.7345 F   0  0  0  0  0  0  0  0  0  0  0  0
    0.0431   -7.5688   10.9583 F   0  0  0  0  0  0  0  0  0  0  0  0
    8.6412   -4.1801    8.9102 S   0  0  0  0  0  0  0  0  0  0  0  0
    7.9959   -5.4197    8.0210 F   0  0  0  0  0  0  0  0  0  0  0  0
    8.6111   -5.1387   10.2570 F   0  0  0  0  0  0  0  0  0  0  0  0
   10.0940   -4.7824    8.5833 F   0  0  0  0  0  0  0  0  0  0  0  0
    8.7765   -3.2671    7.5359 F   0  0  0  0  0  0  0  0  0  0  0  0
    9.3937   -2.9873    9.7714 F   0  0  0  0  0  0  0  0  0  0  0  0
    3.1971    3.7701   11.8241 S   0  0  0  0  0  0  0  0  0  0  0  0
    4.4665    3.3329   12.7932 F   0  0  0  0  0  0  0  0  0  0  0  0
    3.1234    5.1824   12.5882 F   0  0  0  0  0  0  0  0  0  0  0  0
    1.8489    4.2464   10.9422 F   0  0  0  0  0  0  0  0  0  0  0  0
    4.2704    4.4730   10.8050 F   0  0  0  0  0  0  0  0  0  0  0  0
    2.1611    3.2007   12.9967 F   0  0  0  0  0  0  0  0  0  0  0  0
   -0.7527   -3.6232    5.9280 H   0  0  0  0  0  0  0  0  0  0  0  0
    0.1060   -4.3360    7.2863 H   0  0  0  0  0  0  0  0  0  0  0  0
    0.8384   -3.0045    6.3806 H   0  0  0  0  0  0  0  0  0  0  0  0
   -1.0749   -1.5064    7.1256 H   0  0  0  0  0  0  0  0  0  0  0  0
   -1.7157   -2.8581    8.0482 H   0  0  0  0  0  0  0  0  0  0  0  0
    1.1041   -0.8885    7.1839 H   0  0  0  0  0  0  0  0  0  0  0  0
    2.0438    0.4965    7.6714 H   0  0  0  0  0  0  0  0  0  0  0  0
   -0.1598    0.5746    5.5433 H   0  0  0  0  0  0  0  0  0  0  0  0
    1.5660    0.4218    5.2067 H   0  0  0  0  0  0  0  0  0  0  0  0
    0.9438    1.9009    5.9245 H   0  0  0  0  0  0  0  0  0  0  0  0
   -5.9355   -1.6609    7.5396 H   0  0  0  0  0  0  0  0  0  0  0  0
   -7.2668    2.5883    7.0769 H   0  0  0  0  0  0  0  0  0  0  0  0
   -4.9475    5.8966    8.5093 H   0  0  0  0  0  0  0  0  0  0  0  0
    5.2433    2.1004   10.3973 H   0  0  0  0  0  0  0  0  0  0  0  0
    6.1594   -5.4116    9.7996 H   0  0  0  0  0  0  0  0  0  0  0  0
    7.5902   -1.4688    8.9262 H   0  0  0  0  0  0  0  0  0  0  0  0
    1.9989   -6.1277   11.3434 H   0  0  0  0  0  0  0  0  0  0  0  0
   -0.6402    5.6966    8.9181 H   0  0  0  0  0  0  0  0  0  0  0  0
   -1.2137   -3.9770    9.6254 H   0  0  0  0  0  0  0  0  0  0  0  0
    1.0760    1.9439   11.3437 H   0  0  0  0  0  0  0  0  0  0  0  0
    1.7490    2.2945    8.1513 H   0  0  0  0  0  0  0  0  0  0  0  0
   -2.7592   -2.5533   10.2550 H   0  0  0  0  0  0  0  0  0  0  0  0
  1  2  2  0  0  0  0
  1107  1  0  0  0  0
  2  3  1  0  0  0  0
  3  4  2  0  0  0  0
  3  7  1  0  0  0  0
  4  5  1  0  0  0  0
  5  6  2  0  0  0  0
  5101  1  0  0  0  0
  6  1  1  0  0  0  0
  6 82  1  0  0  0  0
  7  8  1  0  0  0  0
  7 11  2  0  0  0  0
  8  9  1  0  0  0  0
  9 10  2  0  0  0  0
 10  4  1  0  0  0  0
 11 12  1  0  0  0  0
 11 18  1  0  0  0  0
 12 13  2  0  0  0  0
 13 14  1  0  0  0  0
 14  8  1  0  0  0  0
 14 15  2  0  0  0  0
 15 16  1  0  0  0  0
 15102  1  0  0  0  0
 16 76  1  0  0  0  0
 16 17  2  0  0  0  0
 17  9  1  0  0  0  0
 17103  1  0  0  0  0
 18 46  1  0  0  0  0
 18 19  2  0  0  0  0
 19 20  1  0  0  0  0
 19106  1  0  0  0  0
 20 70  1  0  0  0  0
 20 21  2  0  0  0  0
 21 12  1  0  0  0  0
 21104  1  0  0  0  0
 22  2  1  0  0  0  0
 23 24  2  0  0  0  0
 23109  1  0  0  0  0
 24 25  1  0  0  0  0
 24 44  1  0  0  0  0
 25 26  2  0  0  0  0
 25 29  1  0  0  0  0
 26 27  1  0  0  0  0
 27 28  2  0  0  0  0
 27 98  1  0  0  0  0
 28 64  1  0  0  0  0
 28 23  1  0  0  0  0
 29 33  2  0  0  0  0
 30 29  1  1  0  0  0
 30 31  1  0  0  0  0
 31 32  2  0  0  0  0
 32 26  1  0  0  0  0
 33 34  1  0  0  0  0
 33 40  1  0  0  0  0
 34 35  2  0  0  0  0
 35 36  1  0  0  0  0
 36 30  1  0  0  0  0
 36 37  2  0  0  0  0
 37 38  1  0  0  0  0
 37100  1  0  0  0  0
 38 52  1  0  0  0  0
 38 39  2  0  0  0  0
 39 31  1  0  0  0  0
 39 99  1  0  0  0  0
 40 49  1  0  0  0  0
 40 41  2  0  0  0  0
 41 42  1  0  0  0  0
 41108  1  0  0  0  0
 42 58  1  0  0  0  0
 42 43  2  0  0  0  0
 43 34  1  0  0  0  0
 43105  1  0  0  0  0
 45 46  1  0  0  0  0
 45 49  1  0  0  0  0
 45 22  1  1  0  0  0
 45 44  1  0  0  0  0
 46 48  1  0  0  0  0
 47 48  1  0  0  0  0
 47 88  1  0  0  0  0
 47 89  1  0  0  0  0
 47 90  1  0  0  0  0
 48 91  1  0  0  0  0
 48 92  1  0  0  0  0
 49 51  1  0  0  0  0
 50 51  1  0  0  0  0
 50 95  1  0  0  0  0
 50 96  1  0  0  0  0
 50 97  1  0  0  0  0
 51 93  1  0  0  0  0
 51 94  1  0  0  0  0
 52 53  1  0  0  0  0
 52 54  1  0  0  0  0
 52 55  1  0  0  0  0
 52 56  1  0  0  0  0
 52 57  1  0  0  0  0
 58 59  1  0  0  0  0
 58 60  1  0  0  0  0
 58 61  1  0  0  0  0
 58 62  1  0  0  0  0
 58 63  1  0  0  0  0
 64 65  1  0  0  0  0
 64 66  1  0  0  0  0
 64 67  1  0  0  0  0
 64 68  1  0  0  0  0
 64 69  1  0  0  0  0
 70 71  1  0  0  0  0
 70 72  1  0  0  0  0
 70 73  1  0  0  0  0
 70 74  1  0  0  0  0
 70 75  1  0  0  0  0
 76 77  1  0  0  0  0
 76 78  1  0  0  0  0
 76 79  1  0  0  0  0
 76 80  1  0  0  0  0
 76 81  1  0  0  0  0
 82 83  1  0  0  0  0
 82 84  1  0  0  0  0
 82 85  1  0  0  0  0
 82 86  1  0  0  0  0
 82 87  1  0  0  0  0
110111  2  0  0  0  0
110216  1  0  0  0  0
111112  1  0  0  0  0
112113  2  0  0  0  0
112116  1  0  0  0  0
113114  1  0  0  0  0
114115  2  0  0  0  0
114210  1  0  0  0  0
115110  1  0  0  0  0
115191  1  0  0  0  0
116117  1  0  0  0  0
116120  2  0  0  0  0
117118  1  0  0  0  0
118119  2  0  0  0  0
119113  1  0  0  0  0
120121  1  0  0  0  0
120127  1  0  0  0  0
121122  2  0  0  0  0
122123  1  0  0  0  0
123117  1  0  0  0  0
123124  2  0  0  0  0
124125  1  0  0  0  0
124211  1  0  0  0  0
125185  1  0  0  0  0
125126  2  0  0  0  0
126118  1  0  0  0  0
126212  1  0  0  0  0
127155  1  0  0  0  0
127128  2  0  0  0  0
128129  1  0  0  0  0
128215  1  0  0  0  0
129179  1  0  0  0  0
129130  2  0  0  0  0
130121  1  0  0  0  0
130213  1  0  0  0  0
131111  1  0  0  0  0
132133  2  0  0  0  0
132218  1  0  0  0  0
133134  1  0  0  0  0
133153  1  0  0  0  0
134135  2  0  0  0  0
134138  1  0  0  0  0
135136  1  0  0  0  0
136137  2  0  0  0  0
136207  1  0  0  0  0
137173  1  0  0  0  0
137132  1  0  0  0  0
138142  2  0  0  0  0
139138  1  1  0  0  0
139140  1  0  0  0  0
140141  2  0  0  0  0
141135  1  0  0  0  0
142143  1  0  0  0  0
142149  1  0  0  0  0
143144  2  0  0  0  0
144145  1  0  0  0  0
145139  1  0  0  0  0
145146  2  0  0  0  0
146147  1  0  0  0  0
146209  1  0  0  0  0
147161  1  0  0  0  0
147148  2  0  0  0  0
148140  1  0  0  0  0
148208  1  0  0  0  0
149158  1  0  0  0  0
149150  2  0  0  0  0
150151  1  0  0  0  0
150217  1  0  0  0  0
151167  1  0  0  0  0
151152  2  0  0  0  0
152143  1  0  0  0  0
152214  1  0  0  0  0
154155  1  0  0  0  0
154158  1  0  0  0  0
154131  1  1  0  0  0
154153  1  0  0  0  0
155157  1  0  0  0  0
156157  1  0  0  0  0
156197  1  0  0  0  0
156198  1  0  0  0  0
156199  1  0  0  0  0
157200  1  0  0  0  0
157201  1  0  0  0  0
158160  1  0  0  0  0
159160  1  0  0  0  0
159204  1  0  0  0  0
159205  1  0  0  0  0
159206  1  0  0  0  0
160202  1  0  0  0  0
160203  1  0  0  0  0
161162  1  0  0  0  0
161163  1  0  0  0  0
161164  1  0  0  0  0
161165  1  0  0  0  0
161166  1  0  0  0  0
167168  1  0  0  0  0
167169  1  0  0  0  0
167170  1  0  0  0  0
167171  1  0  0  0  0
167172  1  0  0  0  0
173174  1  0  0  0  0
173175  1  0  0  0  0
173176  1  0  0  0  0
173177  1  0  0  0  0
173178  1  0  0  0  0
179180  1  0  0  0  0
179181  1  0  0  0  0
179182  1  0  0  0  0
179183  1  0  0  0  0
179184  1  0  0  0  0
185186  1  0  0  0  0
185187  1  0  0  0  0
185188  1  0  0  0  0
185189  1  0  0  0  0
185190  1  0  0  0  0
191192  1  0  0  0  0
191193  1  0  0  0  0
191194  1  0  0  0  0
191195  1  0  0  0  0
191196  1  0  0  0  0
M  CHG  4   8   1  45  -1 117   1 154  -1
M  END
