 xtb: 6.7.1 (edcfbbe)
          12022413053D

 78 82  0     0  0            999 V2000
    0.7737    3.1890   -3.4986 C   0  0  0  0  0  0  0  0  0  0  0  0
    2.7854   -3.0679   -0.2236 C   0  0  0  0  0  0  0  0  0  0  0  0
   -3.4474    0.6470   -2.2802 C   0  0  0  0  0  0  0  0  0  0  0  0
   -2.4177   -0.0309   -1.6572 C   0  0  0  0  0  0  0  0  0  0  0  0
   -1.0837    0.4668   -1.7663 C   0  0  0  0  0  0  0  0  0  0  0  0
   -0.7991    1.5293   -2.6634 C   0  0  0  0  0  0  0  0  0  0  0  0
   -1.8749    2.2048   -3.2558 C   0  0  0  0  0  0  0  0  0  0  0  0
   -3.1563    1.7761   -3.0356 C   0  0  0  0  0  0  0  0  0  0  0  0
    0.0030   -0.0933   -1.0375 C   0  0  0  0  0  0  0  0  0  0  0  0
    1.2835    0.0292   -1.6047 C   0  0  0  0  0  0  0  0  0  0  0  0
    1.5240    1.0310   -2.5904 C   0  0  0  0  0  0  0  0  0  0  0  0
    0.5007    1.8792   -2.9259 N   0  0  0  0  0  0  0  0  0  0  0  0
   -0.0856   -0.7525    0.2231 C   0  0  0  0  0  0  0  0  0  0  0  0
    0.9327   -1.6834    0.5557 C   0  0  0  0  0  0  0  0  0  0  0  0
    2.0158   -1.8342   -0.2756 N   0  0  0  0  0  0  0  0  0  0  0  0
    2.3232   -0.8516   -1.1832 C   0  0  0  0  0  0  0  0  0  0  0  0
    3.5931   -0.6915   -1.7307 C   0  0  0  0  0  0  0  0  0  0  0  0
    3.7988    0.2768   -2.6933 C   0  0  0  0  0  0  0  0  0  0  0  0
    2.8033    1.1193   -3.1347 C   0  0  0  0  0  0  0  0  0  0  0  0
   -1.1104   -0.4592    1.1706 C   0  0  0  0  0  0  0  0  0  0  0  0
   -1.1967   -1.2171    2.3229 C   0  0  0  0  0  0  0  0  0  0  0  0
   -0.2566   -2.2048    2.5685 C   0  0  0  0  0  0  0  0  0  0  0  0
    0.8102   -2.4300    1.7346 C   0  0  0  0  0  0  0  0  0  0  0  0
   -1.8958    0.5994    0.9004 O   0  0  0  0  0  0  0  0  0  0  0  0
   -2.5643   -1.1923   -0.9913 O   0  0  0  0  0  0  0  0  0  0  0  0
   -4.5498    2.7587   -3.7632 S   0  0  0  0  0  0  0  0  0  0  0  0
   -0.4475   -3.2535    4.0869 S   0  0  0  0  0  0  0  0  0  0  0  0
    5.4888    0.4392   -3.4491 S   0  0  0  0  0  0  0  0  0  0  0  0
    5.2834    1.4504   -4.4602 O   0  0  0  0  0  0  0  0  0  0  0  0
    5.4691   -1.0544   -4.1833 O   0  0  0  0  0  0  0  0  0  0  0  0
    4.8385   -1.1560   -5.4364 C   0  0  0  0  0  0  0  0  0  0  0  0
   -3.8562    3.8057   -4.4778 O   0  0  0  0  0  0  0  0  0  0  0  0
   -5.0487    3.3720   -2.2944 O   0  0  0  0  0  0  0  0  0  0  0  0
   -4.3474    4.4786   -1.7868 C   0  0  0  0  0  0  0  0  0  0  0  0
   -1.7469   -2.8588    4.5799 O   0  0  0  0  0  0  0  0  0  0  0  0
   -0.6140   -4.6825    3.2430 O   0  0  0  0  0  0  0  0  0  0  0  0
   -1.8781   -4.9639    2.6977 C   0  0  0  0  0  0  0  0  0  0  0  0
   -4.4726    0.3282   -2.1973 H   0  0  0  0  0  0  0  0  0  0  0  0
   -1.7477    3.0459   -3.9169 H   0  0  0  0  0  0  0  0  0  0  0  0
   -1.9712   -1.0726    3.0591 H   0  0  0  0  0  0  0  0  0  0  0  0
    1.5425   -3.1635    2.0226 H   0  0  0  0  0  0  0  0  0  0  0  0
    4.4333   -1.2884   -1.4188 H   0  0  0  0  0  0  0  0  0  0  0  0
    3.0666    1.8091   -3.9205 H   0  0  0  0  0  0  0  0  0  0  0  0
    1.9293   -4.2769   -0.6194 C   0  0  0  0  0  0  0  0  0  0  0  0
    2.7500   -5.5579   -0.5495 C   0  0  0  0  0  0  0  0  0  0  0  0
    0.4556    4.3047   -2.4966 C   0  0  0  0  0  0  0  0  0  0  0  0
    0.6954    5.6711   -3.1248 C   0  0  0  0  0  0  0  0  0  0  0  0
   -2.8832    0.9730    1.8416 C   0  0  0  0  0  0  0  0  0  0  0  0
   -3.8542   -1.7586   -0.8814 C   0  0  0  0  0  0  0  0  0  0  0  0
   -5.0571    5.1037   -1.2477 H   0  0  0  0  0  0  0  0  0  0  0  0
   -3.9110    5.0536   -2.6101 H   0  0  0  0  0  0  0  0  0  0  0  0
   -3.5523    4.1490   -1.1099 H   0  0  0  0  0  0  0  0  0  0  0  0
   -2.0154   -6.0436    2.7168 H   0  0  0  0  0  0  0  0  0  0  0  0
   -1.9385   -4.5986    1.6672 H   0  0  0  0  0  0  0  0  0  0  0  0
   -2.6586   -4.4875    3.2997 H   0  0  0  0  0  0  0  0  0  0  0  0
    5.3967   -1.8760   -6.0323 H   0  0  0  0  0  0  0  0  0  0  0  0
    4.8480   -0.1835   -5.9391 H   0  0  0  0  0  0  0  0  0  0  0  0
    3.8046   -1.4935   -5.3155 H   0  0  0  0  0  0  0  0  0  0  0  0
    3.2091   -3.2076    0.7740 H   0  0  0  0  0  0  0  0  0  0  0  0
    3.6100   -2.9989   -0.9291 H   0  0  0  0  0  0  0  0  0  0  0  0
    1.5609   -4.1290   -1.6368 H   0  0  0  0  0  0  0  0  0  0  0  0
    1.0646   -4.3624    0.0394 H   0  0  0  0  0  0  0  0  0  0  0  0
    3.6101   -5.5035   -1.2120 H   0  0  0  0  0  0  0  0  0  0  0  0
    2.1432   -6.4078   -0.8476 H   0  0  0  0  0  0  0  0  0  0  0  0
    3.1052   -5.7318    0.4630 H   0  0  0  0  0  0  0  0  0  0  0  0
   -3.3841    1.8376    1.4097 H   0  0  0  0  0  0  0  0  0  0  0  0
   -2.4348    1.2512    2.7985 H   0  0  0  0  0  0  0  0  0  0  0  0
   -3.6099    0.1722    1.9993 H   0  0  0  0  0  0  0  0  0  0  0  0
   -3.7245   -2.6680   -0.2972 H   0  0  0  0  0  0  0  0  0  0  0  0
   -4.2619   -2.0137   -1.8631 H   0  0  0  0  0  0  0  0  0  0  0  0
   -4.5435   -1.0881   -0.3615 H   0  0  0  0  0  0  0  0  0  0  0  0
    0.4904    6.4563   -2.4030 H   0  0  0  0  0  0  0  0  0  0  0  0
    0.0449    5.8180   -3.9832 H   0  0  0  0  0  0  0  0  0  0  0  0
    1.7271    5.7695   -3.4527 H   0  0  0  0  0  0  0  0  0  0  0  0
    1.0935    4.1832   -1.6181 H   0  0  0  0  0  0  0  0  0  0  0  0
   -0.5824    4.2298   -2.1690 H   0  0  0  0  0  0  0  0  0  0  0  0
    0.1957    3.3216   -4.4153 H   0  0  0  0  0  0  0  0  0  0  0  0
    1.8260    3.2574   -3.7600 H   0  0  0  0  0  0  0  0  0  0  0  0
  3  4  4  0  0  0  0
  4  5  4  0  0  0  0
  5  6  4  0  0  0  0
  6  7  4  0  0  0  0
  3  8  4  0  0  0  0
  7  8  4  0  0  0  0
  5  9  4  0  0  0  0
  9 10  4  0  0  0  0
 10 11  4  0  0  0  0
  1 12  1  0  0  0  0
  6 12  1  0  0  0  0
 11 12  1  0  0  0  0
  9 13  4  0  0  0  0
 13 14  4  0  0  0  0
  2 15  1  0  0  0  0
 14 15  1  0  0  0  0
 10 16  4  0  0  0  0
 15 16  1  0  0  0  0
 16 17  4  0  0  0  0
 17 18  4  0  0  0  0
 11 19  4  0  0  0  0
 18 19  4  0  0  0  0
 13 20  4  0  0  0  0
 20 21  4  0  0  0  0
 21 22  4  0  0  0  0
 14 23  4  0  0  0  0
 22 23  4  0  0  0  0
 20 24  1  0  0  0  0
  4 25  1  0  0  0  0
  8 26  1  0  0  0  0
 22 27  1  0  0  0  0
 18 28  1  0  0  0  0
 28 29  2  0  0  0  0
 28 30  1  0  0  0  0
 30 31  1  0  0  0  0
 26 32  2  0  0  0  0
 26 33  1  0  0  0  0
 33 34  1  0  0  0  0
 27 35  2  0  0  0  0
 27 36  1  0  0  0  0
 36 37  1  0  0  0  0
  3 38  1  0  0  0  0
  7 39  1  0  0  0  0
 21 40  1  0  0  0  0
 23 41  1  0  0  0  0
 17 42  1  0  0  0  0
 19 43  1  0  0  0  0
  2 44  1  0  0  0  0
 44 45  1  0  0  0  0
  1 46  1  0  0  0  0
 46 47  1  0  0  0  0
 24 48  1  0  0  0  0
 25 49  1  0  0  0  0
 34 50  1  0  0  0  0
 34 51  1  0  0  0  0
 34 52  1  0  0  0  0
 37 53  1  0  0  0  0
 37 54  1  0  0  0  0
 37 55  1  0  0  0  0
 31 56  1  0  0  0  0
 31 57  1  0  0  0  0
 31 58  1  0  0  0  0
  2 59  1  0  0  0  0
  2 60  1  0  0  0  0
 44 61  1  0  0  0  0
 44 62  1  0  0  0  0
 45 63  1  0  0  0  0
 45 64  1  0  0  0  0
 45 65  1  0  0  0  0
 48 66  1  0  0  0  0
 48 67  1  0  0  0  0
 48 68  1  0  0  0  0
 49 69  1  0  0  0  0
 49 70  1  0  0  0  0
 49 71  1  0  0  0  0
 47 72  1  0  0  0  0
 47 73  1  0  0  0  0
 47 74  1  0  0  0  0
 46 75  1  0  0  0  0
 46 76  1  0  0  0  0
  1 77  1  0  0  0  0
  1 78  1  0  0  0  0
M  CHG  1   1   1
M  END
