 energy: -27.736233720971 gnorm: 0.000544533081 xtb: 6.7.1 (edcfbbe)
          12022413053D

156164  0     0  0            999 V2000
   -0.6654    2.5244   -2.3089 C   0  0  0  0  0  0  0  0  0  0  0  0
    2.3426   -2.7318    2.0481 C   0  0  0  0  0  0  0  0  0  0  0  0
   -4.4813   -0.5649   -0.9576 C   0  0  0  0  0  0  0  0  0  0  0  0
   -3.3688   -1.0892   -0.3081 C   0  0  0  0  0  0  0  0  0  0  0  0
   -2.1461   -0.3312   -0.3344 C   0  0  0  0  0  0  0  0  0  0  0  0
   -2.0164    0.7333   -1.2652 C   0  0  0  0  0  0  0  0  0  0  0  0
   -3.1635    1.1945   -1.9074 C   0  0  0  0  0  0  0  0  0  0  0  0
   -4.3790    0.5863   -1.7172 C   0  0  0  0  0  0  0  0  0  0  0  0
   -1.0105   -0.6625    0.4857 C   0  0  0  0  0  0  0  0  0  0  0  0
    0.2760   -0.3448   -0.0271 C   0  0  0  0  0  0  0  0  0  0  0  0
    0.4031    0.6103   -1.0761 C   0  0  0  0  0  0  0  0  0  0  0  0
   -0.7486    1.2580   -1.5505 N   0  0  0  0  0  0  0  0  0  0  0  0
   -1.0959   -1.2108    1.8117 C   0  0  0  0  0  0  0  0  0  0  0  0
    0.0768   -1.7768    2.3783 C   0  0  0  0  0  0  0  0  0  0  0  0
    1.2754   -1.7909    1.6471 N   0  0  0  0  0  0  0  0  0  0  0  0
    1.4324   -0.9578    0.5311 C   0  0  0  0  0  0  0  0  0  0  0  0
    2.6775   -0.6493   -0.0092 C   0  0  0  0  0  0  0  0  0  0  0  0
    2.7930    0.2801   -1.0212 C   0  0  0  0  0  0  0  0  0  0  0  0
    1.6796    0.9028   -1.5428 C   0  0  0  0  0  0  0  0  0  0  0  0
   -2.2719   -1.0816    2.6295 C   0  0  0  0  0  0  0  0  0  0  0  0
   -2.2568   -1.6328    3.9064 C   0  0  0  0  0  0  0  0  0  0  0  0
   -1.1016   -2.1632    4.4417 C   0  0  0  0  0  0  0  0  0  0  0  0
    0.0415   -2.2479    3.6895 C   0  0  0  0  0  0  0  0  0  0  0  0
   -3.3504   -0.3137    2.1882 O   0  0  0  0  0  0  0  0  0  0  0  0
   -3.3570   -2.3320    0.3174 O   0  0  0  0  0  0  0  0  0  0  0  0
   -5.8441    1.3180   -2.4798 S   0  0  0  0  0  0  0  0  0  0  0  0
   -1.0352   -2.6572    6.1752 S   0  0  0  0  0  0  0  0  0  0  0  0
    4.4407    0.7276   -1.6163 S   0  0  0  0  0  0  0  0  0  0  0  0
    4.0557    2.0234   -2.3827 O   0  0  0  0  0  0  0  0  0  0  0  0
    4.5445   -0.3874   -2.8728 O   0  0  0  0  0  0  0  0  0  0  0  0
    3.6908   -0.1013   -3.9303 C   0  0  0  0  0  0  0  0  0  0  0  0
   -5.1709    2.5543   -3.1428 O   0  0  0  0  0  0  0  0  0  0  0  0
   -6.4735    1.9998   -1.0745 O   0  0  0  0  0  0  0  0  0  0  0  0
   -5.7351    3.0953   -0.6421 C   0  0  0  0  0  0  0  0  0  0  0  0
   -2.4791   -3.2030    6.3502 O   0  0  0  0  0  0  0  0  0  0  0  0
   -0.1549   -4.0692    5.9515 O   0  0  0  0  0  0  0  0  0  0  0  0
   -0.9052   -5.0459    5.3082 C   0  0  0  0  0  0  0  0  0  0  0  0
   -5.4367   -1.0501   -0.8845 H   0  0  0  0  0  0  0  0  0  0  0  0
   -3.1281    2.0448   -2.5626 H   0  0  0  0  0  0  0  0  0  0  0  0
   -3.1201   -1.5681    4.5405 H   0  0  0  0  0  0  0  0  0  0  0  0
    0.9293   -2.6300    4.1567 H   0  0  0  0  0  0  0  0  0  0  0  0
    3.5816   -1.0420    0.4191 H   0  0  0  0  0  0  0  0  0  0  0  0
    1.8364    1.6272   -2.3182 H   0  0  0  0  0  0  0  0  0  0  0  0
    1.8949   -4.1807    1.9106 C   0  0  0  0  0  0  0  0  0  0  0  0
    2.9610   -5.1783    2.3283 C   0  0  0  0  0  0  0  0  0  0  0  0
   -1.1638    3.7081   -1.4890 C   0  0  0  0  0  0  0  0  0  0  0  0
   -1.2281    4.9984   -2.2869 C   0  0  0  0  0  0  0  0  0  0  0  0
   -4.5838   -0.6006    2.8086 C   0  0  0  0  0  0  0  0  0  0  0  0
   -4.5395   -3.0810    0.1762 C   0  0  0  0  0  0  0  0  0  0  0  0
   -6.2298    3.5410    0.2252 H   0  0  0  0  0  0  0  0  0  0  0  0
   -5.6811    3.8260   -1.4549 H   0  0  0  0  0  0  0  0  0  0  0  0
   -4.7262    2.7780   -0.3667 H   0  0  0  0  0  0  0  0  0  0  0  0
   -0.3178   -5.9656    5.2404 H   0  0  0  0  0  0  0  0  0  0  0  0
   -1.1758   -4.7067    4.3047 H   0  0  0  0  0  0  0  0  0  0  0  0
   -1.8141   -5.2288    5.8896 H   0  0  0  0  0  0  0  0  0  0  0  0
    3.9393   -0.7551   -4.7705 H   0  0  0  0  0  0  0  0  0  0  0  0
    3.8270    0.9438   -4.2240 H   0  0  0  0  0  0  0  0  0  0  0  0
    2.6555   -0.2769   -3.6289 H   0  0  0  0  0  0  0  0  0  0  0  0
    2.6451   -2.5040    3.0722 H   0  0  0  0  0  0  0  0  0  0  0  0
    3.2341   -2.5723    1.4408 H   0  0  0  0  0  0  0  0  0  0  0  0
    1.5929   -4.3578    0.8704 H   0  0  0  0  0  0  0  0  0  0  0  0
    0.9809   -4.3376    2.4960 H   0  0  0  0  0  0  0  0  0  0  0  0
    3.8668   -5.0586    1.7323 H   0  0  0  0  0  0  0  0  0  0  0  0
    2.6241   -6.2098    2.2094 H   0  0  0  0  0  0  0  0  0  0  0  0
    3.2387   -5.0447    3.3747 H   0  0  0  0  0  0  0  0  0  0  0  0
   -5.3819   -0.1637    2.2073 H   0  0  0  0  0  0  0  0  0  0  0  0
   -4.6160   -0.1663    3.8064 H   0  0  0  0  0  0  0  0  0  0  0  0
   -4.7264   -1.6804    2.8610 H   0  0  0  0  0  0  0  0  0  0  0  0
   -4.3955   -4.0463    0.6626 H   0  0  0  0  0  0  0  0  0  0  0  0
   -4.7503   -3.2433   -0.8815 H   0  0  0  0  0  0  0  0  0  0  0  0
   -5.3698   -2.5634    0.6570 H   0  0  0  0  0  0  0  0  0  0  0  0
   -1.5848    5.8340   -1.6818 H   0  0  0  0  0  0  0  0  0  0  0  0
   -1.9025    4.8996   -3.1390 H   0  0  0  0  0  0  0  0  0  0  0  0
   -0.2470    5.2689   -2.6799 H   0  0  0  0  0  0  0  0  0  0  0  0
   -0.5225    3.8329   -0.6082 H   0  0  0  0  0  0  0  0  0  0  0  0
   -2.1503    3.4757   -1.0686 H   0  0  0  0  0  0  0  0  0  0  0  0
   -1.2408    2.4157   -3.2318 H   0  0  0  0  0  0  0  0  0  0  0  0
    0.3567    2.7116   -2.6376 H   0  0  0  0  0  0  0  0  0  0  0  0
    1.6931    2.2184    1.5675 C   0  0  0  0  0  0  0  0  0  0  0  0
    3.4059   -2.4040    7.1034 C   0  0  0  0  0  0  0  0  0  0  0  0
   -2.5385    1.7449    4.3564 C   0  0  0  0  0  0  0  0  0  0  0  0
   -1.5586    1.1420    5.1357 C   0  0  0  0  0  0  0  0  0  0  0  0
   -0.1839    1.2450    4.7200 C   0  0  0  0  0  0  0  0  0  0  0  0
    0.1113    1.7905    3.4406 C   0  0  0  0  0  0  0  0  0  0  0  0
   -0.9272    2.3508    2.6961 C   0  0  0  0  0  0  0  0  0  0  0  0
   -2.2249    2.3064    3.1357 C   0  0  0  0  0  0  0  0  0  0  0  0
    0.8846    0.6604    5.4827 C   0  0  0  0  0  0  0  0  0  0  0  0
    2.0746    0.2965    4.8063 C   0  0  0  0  0  0  0  0  0  0  0  0
    2.3593    0.8511    3.5279 C   0  0  0  0  0  0  0  0  0  0  0  0
    1.3969    1.6500    2.8983 N   0  0  0  0  0  0  0  0  0  0  0  0
    0.7890    0.3236    6.8791 C   0  0  0  0  0  0  0  0  0  0  0  0
    1.5360   -0.7869    7.3637 C   0  0  0  0  0  0  0  0  0  0  0  0
    2.6236   -1.2525    6.6129 N   0  0  0  0  0  0  0  0  0  0  0  0
    2.9733   -0.6337    5.4047 C   0  0  0  0  0  0  0  0  0  0  0  0
    4.1497   -0.9388    4.7294 C   0  0  0  0  0  0  0  0  0  0  0  0
    4.4510   -0.3508    3.5212 C   0  0  0  0  0  0  0  0  0  0  0  0
    3.5799    0.5413    2.9343 C   0  0  0  0  0  0  0  0  0  0  0  0
   -0.0084    1.0832    7.8049 C   0  0  0  0  0  0  0  0  0  0  0  0
   -0.3041    0.5036    9.0324 C   0  0  0  0  0  0  0  0  0  0  0  0
    0.2379   -0.7155    9.3913 C   0  0  0  0  0  0  0  0  0  0  0  0
    1.1776   -1.3333    8.5987 C   0  0  0  0  0  0  0  0  0  0  0  0
   -0.4134    2.3611    7.4359 O   0  0  0  0  0  0  0  0  0  0  0  0
   -1.8837    0.3327    6.2225 O   0  0  0  0  0  0  0  0  0  0  0  0
   -3.5478    2.8831    2.0512 S   0  0  0  0  0  0  0  0  0  0  0  0
   -0.2998   -1.5229   10.9128 S   0  0  0  0  0  0  0  0  0  0  0  0
    5.9789   -0.7565    2.6451 S   0  0  0  0  0  0  0  0  0  0  0  0
    5.3273   -1.4983    1.4372 O   0  0  0  0  0  0  0  0  0  0  0  0
    6.4421   -2.0288    3.6523 O   0  0  0  0  0  0  0  0  0  0  0  0
    6.0032   -3.2625    3.1907 C   0  0  0  0  0  0  0  0  0  0  0  0
   -2.7126    3.7464    1.0675 O   0  0  0  0  0  0  0  0  0  0  0  0
   -4.1742    4.0558    3.0740 O   0  0  0  0  0  0  0  0  0  0  0  0
   -3.2736    5.0901    3.2959 C   0  0  0  0  0  0  0  0  0  0  0  0
   -1.6957   -0.8518   11.0524 O   0  0  0  0  0  0  0  0  0  0  0  0
   -0.7000   -2.9962   10.2053 O   0  0  0  0  0  0  0  0  0  0  0  0
   -1.8633   -2.9168    9.4487 C   0  0  0  0  0  0  0  0  0  0  0  0
   -3.5701    1.7081    4.6515 H   0  0  0  0  0  0  0  0  0  0  0  0
   -0.7523    2.8000    1.7378 H   0  0  0  0  0  0  0  0  0  0  0  0
   -0.9951    0.9693    9.7103 H   0  0  0  0  0  0  0  0  0  0  0  0
    1.5829   -2.2722    8.9278 H   0  0  0  0  0  0  0  0  0  0  0  0
    4.8524   -1.6426    5.1304 H   0  0  0  0  0  0  0  0  0  0  0  0
    3.8714    0.9804    1.9991 H   0  0  0  0  0  0  0  0  0  0  0  0
    2.9077   -3.7094    6.5033 C   0  0  0  0  0  0  0  0  0  0  0  0
    3.6946   -4.9200    6.9733 C   0  0  0  0  0  0  0  0  0  0  0  0
    2.2596    3.6252    1.6331 C   0  0  0  0  0  0  0  0  0  0  0  0
    2.6763    4.1460    0.2657 C   0  0  0  0  0  0  0  0  0  0  0  0
   -1.1395    3.0586    8.4180 C   0  0  0  0  0  0  0  0  0  0  0  0
   -3.1966    0.4609    6.7170 C   0  0  0  0  0  0  0  0  0  0  0  0
   -3.7643    5.8686    3.8864 H   0  0  0  0  0  0  0  0  0  0  0  0
   -2.9622    5.4995    2.3299 H   0  0  0  0  0  0  0  0  0  0  0  0
   -2.4016    4.7142    3.8379 H   0  0  0  0  0  0  0  0  0  0  0  0
   -2.0581   -3.8883    8.9848 H   0  0  0  0  0  0  0  0  0  0  0  0
   -1.7493   -2.1579    8.6703 H   0  0  0  0  0  0  0  0  0  0  0  0
   -2.6914   -2.6400   10.1085 H   0  0  0  0  0  0  0  0  0  0  0  0
    6.4051   -4.0533    3.8296 H   0  0  0  0  0  0  0  0  0  0  0  0
    6.3522   -3.3986    2.1629 H   0  0  0  0  0  0  0  0  0  0  0  0
    4.9125   -3.2877    3.2112 H   0  0  0  0  0  0  0  0  0  0  0  0
    3.3671   -2.4372    8.1940 H   0  0  0  0  0  0  0  0  0  0  0  0
    4.4642   -2.2519    6.8837 H   0  0  0  0  0  0  0  0  0  0  0  0
    2.9415   -3.6340    5.4097 H   0  0  0  0  0  0  0  0  0  0  0  0
    1.8436   -3.8296    6.7428 H   0  0  0  0  0  0  0  0  0  0  0  0
    4.7495   -4.8309    6.7096 H   0  0  0  0  0  0  0  0  0  0  0  0
    3.3212   -5.8462    6.5322 H   0  0  0  0  0  0  0  0  0  0  0  0
    3.6403   -5.0276    8.0576 H   0  0  0  0  0  0  0  0  0  0  0  0
   -1.3842    4.0471    8.0281 H   0  0  0  0  0  0  0  0  0  0  0  0
   -0.5324    3.1702    9.3173 H   0  0  0  0  0  0  0  0  0  0  0  0
   -2.0648    2.5279    8.6437 H   0  0  0  0  0  0  0  0  0  0  0  0
   -3.2549   -0.0695    7.6684 H   0  0  0  0  0  0  0  0  0  0  0  0
   -3.9064    0.0135    6.0227 H   0  0  0  0  0  0  0  0  0  0  0  0
   -3.4308    1.5131    6.8805 H   0  0  0  0  0  0  0  0  0  0  0  0
    3.0929    5.1532    0.3197 H   0  0  0  0  0  0  0  0  0  0  0  0
    1.8295    4.1771   -0.4205 H   0  0  0  0  0  0  0  0  0  0  0  0
    3.4298    3.5024   -0.1918 H   0  0  0  0  0  0  0  0  0  0  0  0
    3.1150    3.6327    2.3204 H   0  0  0  0  0  0  0  0  0  0  0  0
    1.5195    4.2922    2.0928 H   0  0  0  0  0  0  0  0  0  0  0  0
    0.8006    2.1859    0.9412 H   0  0  0  0  0  0  0  0  0  0  0  0
    2.3898    1.5629    1.0481 H   0  0  0  0  0  0  0  0  0  0  0  0
  1 12  1  0  0  0  0
  1 46  1  0  0  0  0
  1 77  1  0  0  0  0
  1 78  1  0  0  0  0
  2 15  1  0  0  0  0
  2 44  1  0  0  0  0
  2 59  1  0  0  0  0
  2 60  1  0  0  0  0
  3  4  2  0  0  0  0
  3  8  1  0  0  0  0
  3 38  1  0  0  0  0
  4  5  1  0  0  0  0
  4 25  1  0  0  0  0
  5  6  2  0  0  0  0
  5  9  1  0  0  0  0
  6  7  1  0  0  0  0
  6 12  1  0  0  0  0
  7  8  2  0  0  0  0
  7 39  1  0  0  0  0
  8 26  1  0  0  0  0
  9 10  2  0  0  0  0
  9 13  1  0  0  0  0
 10 16  1  0  0  0  0
 11 10  1  0  0  0  0
 11 12  1  0  0  0  0
 11 19  1  0  0  0  0
 13 14  2  0  0  0  0
 13 20  1  0  0  0  0
 14 15  1  0  0  0  0
 14 23  1  0  0  0  0
 15 16  1  0  0  0  0
 16 17  2  0  0  0  0
 17 18  1  0  0  0  0
 17 42  1  0  0  0  0
 18 19  2  0  0  0  0
 18 28  1  0  0  0  0
 19 43  1  0  0  0  0
 20 21  2  0  0  0  0
 20 24  1  0  0  0  0
 21 22  1  0  0  0  0
 21 40  1  0  0  0  0
 22 23  2  0  0  0  0
 22 27  1  0  0  0  0
 23 41  1  0  0  0  0
 24 48  1  0  0  0  0
 25 49  1  0  0  0  0
 26 32  2  0  0  0  0
 26 33  1  0  0  0  0
 27 35  2  0  0  0  0
 27 36  1  0  0  0  0
 28 29  2  0  0  0  0
 28 30  1  0  0  0  0
 30 31  1  0  0  0  0
 31 56  1  0  0  0  0
 31 57  1  0  0  0  0
 31 58  1  0  0  0  0
 33 34  1  0  0  0  0
 34 50  1  0  0  0  0
 34 51  1  0  0  0  0
 34 52  1  0  0  0  0
 36 37  1  0  0  0  0
 37 53  1  0  0  0  0
 37 54  1  0  0  0  0
 37 55  1  0  0  0  0
 44 45  1  0  0  0  0
 44 61  1  0  0  0  0
 44 62  1  0  0  0  0
 45 63  1  0  0  0  0
 45 64  1  0  0  0  0
 45 65  1  0  0  0  0
 46 47  1  0  0  0  0
 46 75  1  0  0  0  0
 46 76  1  0  0  0  0
 47 72  1  0  0  0  0
 47 73  1  0  0  0  0
 47 74  1  0  0  0  0
 48 66  1  0  0  0  0
 48 67  1  0  0  0  0
 48 68  1  0  0  0  0
 49 69  1  0  0  0  0
 49 70  1  0  0  0  0
 49 71  1  0  0  0  0
 79 90  1  0  0  0  0
 79124  1  0  0  0  0
 79155  1  0  0  0  0
 79156  1  0  0  0  0
 80 93  1  0  0  0  0
 80122  1  0  0  0  0
 80137  1  0  0  0  0
 80138  1  0  0  0  0
 81 82  2  0  0  0  0
 81 86  1  0  0  0  0
 81116  1  0  0  0  0
 82 83  1  0  0  0  0
 82103  1  0  0  0  0
 83 84  2  0  0  0  0
 83 87  1  0  0  0  0
 84 85  1  0  0  0  0
 84 90  1  0  0  0  0
 85 86  2  0  0  0  0
 85117  1  0  0  0  0
 86104  1  0  0  0  0
 87 88  2  0  0  0  0
 87 91  1  0  0  0  0
 88 94  1  0  0  0  0
 89 88  1  0  0  0  0
 89 90  1  0  0  0  0
 89 97  1  0  0  0  0
 91 92  2  0  0  0  0
 91 98  1  0  0  0  0
 92 93  1  0  0  0  0
 92101  1  0  0  0  0
 93 94  1  0  0  0  0
 94 95  2  0  0  0  0
 95 96  1  0  0  0  0
 95120  1  0  0  0  0
 96 97  2  0  0  0  0
 96106  1  0  0  0  0
 97121  1  0  0  0  0
 98 99  2  0  0  0  0
 98102  1  0  0  0  0
 99100  1  0  0  0  0
 99118  1  0  0  0  0
100101  2  0  0  0  0
100105  1  0  0  0  0
101119  1  0  0  0  0
102126  1  0  0  0  0
103127  1  0  0  0  0
104110  2  0  0  0  0
104111  1  0  0  0  0
105113  2  0  0  0  0
105114  1  0  0  0  0
106107  2  0  0  0  0
106108  1  0  0  0  0
108109  1  0  0  0  0
109134  1  0  0  0  0
109135  1  0  0  0  0
109136  1  0  0  0  0
111112  1  0  0  0  0
112128  1  0  0  0  0
112129  1  0  0  0  0
112130  1  0  0  0  0
114115  1  0  0  0  0
115131  1  0  0  0  0
115132  1  0  0  0  0
115133  1  0  0  0  0
122123  1  0  0  0  0
122139  1  0  0  0  0
122140  1  0  0  0  0
123141  1  0  0  0  0
123142  1  0  0  0  0
123143  1  0  0  0  0
124125  1  0  0  0  0
124153  1  0  0  0  0
124154  1  0  0  0  0
125150  1  0  0  0  0
125151  1  0  0  0  0
125152  1  0  0  0  0
126144  1  0  0  0  0
126145  1  0  0  0  0
126146  1  0  0  0  0
127147  1  0  0  0  0
127148  1  0  0  0  0
127149  1  0  0  0  0
M  END
