 energy: -130.265278472733 gnorm: 0.000376113410 xtb: 6.7.1 (edcfbbe)
          02242515593D

 78 82  0     0  0            999 V2000
    0.8291    3.2269   -3.3850 C   0  0  0  0  0  0  0  0  0  0  0  0
    2.7607   -3.1210   -0.2697 C   0  0  0  0  0  0  0  0  0  0  0  0
   -3.3955    0.6011   -2.3371 C   0  0  0  0  0  0  0  0  0  0  0  0
   -2.3645   -0.0514   -1.6854 C   0  0  0  0  0  0  0  0  0  0  0  0
   -1.0419    0.4587   -1.7688 C   0  0  0  0  0  0  0  0  0  0  0  0
   -0.7589    1.5103   -2.6702 C   0  0  0  0  0  0  0  0  0  0  0  0
   -1.8135    2.1444   -3.3228 C   0  0  0  0  0  0  0  0  0  0  0  0
   -3.1054    1.7124   -3.1133 C   0  0  0  0  0  0  0  0  0  0  0  0
    0.0405   -0.1015   -1.0261 C   0  0  0  0  0  0  0  0  0  0  0  0
    1.3375    0.0224   -1.5922 C   0  0  0  0  0  0  0  0  0  0  0  0
    1.5887    1.0355   -2.5454 C   0  0  0  0  0  0  0  0  0  0  0  0
    0.5567    1.8960   -2.8800 N   0  0  0  0  0  0  0  0  0  0  0  0
   -0.0507   -0.7624    0.2360 C   0  0  0  0  0  0  0  0  0  0  0  0
    0.9602   -1.6906    0.5773 C   0  0  0  0  0  0  0  0  0  0  0  0
    2.0371   -1.8661   -0.2806 N   0  0  0  0  0  0  0  0  0  0  0  0
    2.3580   -0.8695   -1.1894 C   0  0  0  0  0  0  0  0  0  0  0  0
    3.6343   -0.7109   -1.7161 C   0  0  0  0  0  0  0  0  0  0  0  0
    3.8526    0.2637   -2.6744 C   0  0  0  0  0  0  0  0  0  0  0  0
    2.8600    1.1220   -3.1028 C   0  0  0  0  0  0  0  0  0  0  0  0
   -1.0644   -0.4596    1.1813 C   0  0  0  0  0  0  0  0  0  0  0  0
   -1.1619   -1.2066    2.3418 C   0  0  0  0  0  0  0  0  0  0  0  0
   -0.2247   -2.1910    2.5972 C   0  0  0  0  0  0  0  0  0  0  0  0
    0.8554   -2.4110    1.7637 C   0  0  0  0  0  0  0  0  0  0  0  0
   -1.8617    0.6062    0.8947 O   0  0  0  0  0  0  0  0  0  0  0  0
   -2.5165   -1.2143   -0.9912 O   0  0  0  0  0  0  0  0  0  0  0  0
   -4.4905    2.6189   -3.8686 S   0  0  0  0  0  0  0  0  0  0  0  0
   -0.3958   -3.2420    4.0721 S   0  0  0  0  0  0  0  0  0  0  0  0
    5.5274    0.3975   -3.3814 S   0  0  0  0  0  0  0  0  0  0  0  0
    5.4241    1.4926   -4.3284 O   0  0  0  0  0  0  0  0  0  0  0  0
    5.4790   -1.0420   -4.2485 O   0  0  0  0  0  0  0  0  0  0  0  0
    4.6611   -1.0462   -5.3881 C   0  0  0  0  0  0  0  0  0  0  0  0
   -3.8470    3.6728   -4.6323 O   0  0  0  0  0  0  0  0  0  0  0  0
   -5.0552    3.2956   -2.4344 O   0  0  0  0  0  0  0  0  0  0  0  0
   -4.2399    4.2816   -1.8608 C   0  0  0  0  0  0  0  0  0  0  0  0
   -1.6284   -2.7865    4.6897 O   0  0  0  0  0  0  0  0  0  0  0  0
   -0.7317   -4.6610    3.2297 O   0  0  0  0  0  0  0  0  0  0  0  0
   -1.9703   -4.7022    2.5744 C   0  0  0  0  0  0  0  0  0  0  0  0
   -4.4209    0.2794   -2.2562 H   0  0  0  0  0  0  0  0  0  0  0  0
   -1.6727    2.9716   -3.9979 H   0  0  0  0  0  0  0  0  0  0  0  0
   -1.9424   -1.0561    3.0702 H   0  0  0  0  0  0  0  0  0  0  0  0
    1.5862   -3.1466    2.0539 H   0  0  0  0  0  0  0  0  0  0  0  0
    4.4658   -1.3241   -1.4085 H   0  0  0  0  0  0  0  0  0  0  0  0
    3.1185    1.8303   -3.8734 H   0  0  0  0  0  0  0  0  0  0  0  0
    1.8492   -4.2971   -0.6397 C   0  0  0  0  0  0  0  0  0  0  0  0
    2.6323   -5.6027   -0.6748 C   0  0  0  0  0  0  0  0  0  0  0  0
    0.3893    4.3014   -2.3837 C   0  0  0  0  0  0  0  0  0  0  0  0
    0.6411    5.6970   -2.9382 C   0  0  0  0  0  0  0  0  0  0  0  0
   -2.8752    0.9450    1.8078 C   0  0  0  0  0  0  0  0  0  0  0  0
   -3.8093   -1.7467   -0.8546 C   0  0  0  0  0  0  0  0  0  0  0  0
   -4.8762    4.9267   -1.2562 H   0  0  0  0  0  0  0  0  0  0  0  0
   -3.7641    4.8766   -2.6479 H   0  0  0  0  0  0  0  0  0  0  0  0
   -3.4664    3.8274   -1.2314 H   0  0  0  0  0  0  0  0  0  0  0  0
   -2.2431   -5.7493    2.4494 H   0  0  0  0  0  0  0  0  0  0  0  0
   -1.9072   -4.2148    1.5949 H   0  0  0  0  0  0  0  0  0  0  0  0
   -2.7304   -4.1981    3.1810 H   0  0  0  0  0  0  0  0  0  0  0  0
    5.0548   -1.7944   -6.0747 H   0  0  0  0  0  0  0  0  0  0  0  0
    4.6861   -0.0624   -5.8688 H   0  0  0  0  0  0  0  0  0  0  0  0
    3.6274   -1.2924   -5.1225 H   0  0  0  0  0  0  0  0  0  0  0  0
    3.2240   -3.2923    0.7076 H   0  0  0  0  0  0  0  0  0  0  0  0
    3.5571   -3.0675   -1.0103 H   0  0  0  0  0  0  0  0  0  0  0  0
    1.4092   -4.1010   -1.6199 H   0  0  0  0  0  0  0  0  0  0  0  0
    1.0338   -4.3786    0.0797 H   0  0  0  0  0  0  0  0  0  0  0  0
    3.4383   -5.5492   -1.4034 H   0  0  0  0  0  0  0  0  0  0  0  0
    1.9794   -6.4281   -0.9457 H   0  0  0  0  0  0  0  0  0  0  0  0
    3.0644   -5.8151    0.3005 H   0  0  0  0  0  0  0  0  0  0  0  0
   -3.3901    1.8003    1.3715 H   0  0  0  0  0  0  0  0  0  0  0  0
   -2.4617    1.2278    2.7813 H   0  0  0  0  0  0  0  0  0  0  0  0
   -3.5882    0.1258    1.9455 H   0  0  0  0  0  0  0  0  0  0  0  0
   -3.6973   -2.6379   -0.2377 H   0  0  0  0  0  0  0  0  0  0  0  0
   -4.2330   -2.0301   -1.8242 H   0  0  0  0  0  0  0  0  0  0  0  0
   -4.4866   -1.0457   -0.3564 H   0  0  0  0  0  0  0  0  0  0  0  0
    0.3457    6.4516   -2.2139 H   0  0  0  0  0  0  0  0  0  0  0  0
    0.0677    5.8538   -3.8490 H   0  0  0  0  0  0  0  0  0  0  0  0
    1.6953    5.8350   -3.1676 H   0  0  0  0  0  0  0  0  0  0  0  0
    0.9460    4.1625   -1.4542 H   0  0  0  0  0  0  0  0  0  0  0  0
   -0.6711    4.1835   -2.1564 H   0  0  0  0  0  0  0  0  0  0  0  0
    0.3305    3.3788   -4.3470 H   0  0  0  0  0  0  0  0  0  0  0  0
    1.8997    3.3314   -3.5470 H   0  0  0  0  0  0  0  0  0  0  0  0
  1 46  1  0  0  0  0
  1 77  1  0  0  0  0
  1 78  1  0  0  0  0
  2 44  1  0  0  0  0
  2 59  1  0  0  0  0
  2 60  1  0  0  0  0
  3  4  2  0  0  0  0
  3 38  1  0  0  0  0
  4  5  1  0  0  0  0
  4 25  1  0  0  0  0
  5  6  2  0  0  0  0
  6  7  1  0  0  0  0
  7  8  2  0  0  0  0
  7 39  1  0  0  0  0
  8  3  1  0  0  0  0
  8 26  1  0  0  0  0
  9  5  1  0  0  0  0
  9 10  1  0  0  0  0
 10 11  2  0  0  0  0
 11 12  1  0  0  0  0
 12  1  1  0  0  0  0
 12  6  1  0  0  0  0
 13 14  2  0  0  0  0
 13 20  1  0  0  0  0
 13  9  1  0  0  0  0
 14 15  1  0  0  0  0
 15  2  1  0  0  0  0
 15 16  1  0  0  0  0
 16 10  1  0  0  0  0
 16 17  2  0  0  0  0
 17 18  1  0  0  0  0
 17 42  1  0  0  0  0
 18 19  2  0  0  0  0
 18 28  1  0  0  0  0
 19 11  1  0  0  0  0
 19 43  1  0  0  0  0
 20 21  2  0  0  0  0
 21 22  1  0  0  0  0
 21 40  1  0  0  0  0
 22 23  2  0  0  0  0
 22 27  1  0  0  0  0
 23 14  1  0  0  0  0
 23 41  1  0  0  0  0
 24 48  1  0  0  0  0
 24 20  1  0  0  0  0
 25 49  1  0  0  0  0
 26 32  2  0  0  0  0
 26 33  1  0  0  0  0
 27 35  2  0  0  0  0
 27 36  1  0  0  0  0
 28 29  2  0  0  0  0
 28 30  1  0  0  0  0
 30 31  1  0  0  0  0
 31 56  1  0  0  0  0
 31 57  1  0  0  0  0
 31 58  1  0  0  0  0
 33 34  1  0  0  0  0
 34 50  1  0  0  0  0
 34 51  1  0  0  0  0
 34 52  1  0  0  0  0
 36 37  1  0  0  0  0
 37 53  1  0  0  0  0
 37 54  1  0  0  0  0
 37 55  1  0  0  0  0
 44 45  1  0  0  0  0
 44 61  1  0  0  0  0
 44 62  1  0  0  0  0
 45 63  1  0  0  0  0
 45 64  1  0  0  0  0
 45 65  1  0  0  0  0
 46 47  1  0  0  0  0
 46 75  1  0  0  0  0
 46 76  1  0  0  0  0
 47 72  1  0  0  0  0
 47 73  1  0  0  0  0
 47 74  1  0  0  0  0
 48 66  1  0  0  0  0
 48 67  1  0  0  0  0
 48 68  1  0  0  0  0
 49 69  1  0  0  0  0
 49 70  1  0  0  0  0
 49 71  1  0  0  0  0
M  END
