 xtb: 6.7.1 (43a0e4e5b5d943adc66b4aa6563d39c792f6153b)
          11252411303D

 78 82  0     0  0            999 V2000
    0.8232    3.2239   -3.3930 C   0  0  0  0  0  0  0  0  0  0  0  0
    2.7580   -3.1224   -0.2784 C   0  0  0  0  0  0  0  0  0  0  0  0
   -3.3996    0.6005   -2.3352 C   0  0  0  0  0  0  0  0  0  0  0  0
   -2.3681   -0.0509   -1.6838 C   0  0  0  0  0  0  0  0  0  0  0  0
   -1.0444    0.4573   -1.7720 C   0  0  0  0  0  0  0  0  0  0  0  0
   -0.7631    1.5065   -2.6775 C   0  0  0  0  0  0  0  0  0  0  0  0
   -1.8186    2.1396   -3.3292 C   0  0  0  0  0  0  0  0  0  0  0  0
   -3.1108    1.7096   -3.1153 C   0  0  0  0  0  0  0  0  0  0  0  0
    0.0385   -0.1024   -1.0321 C   0  0  0  0  0  0  0  0  0  0  0  0
    1.3337    0.0209   -1.5991 C   0  0  0  0  0  0  0  0  0  0  0  0
    1.5850    1.0332   -2.5539 C   0  0  0  0  0  0  0  0  0  0  0  0
    0.5521    1.8919   -2.8902 N   0  0  0  0  0  0  0  0  0  0  0  0
   -0.0520   -0.7631    0.2290 C   0  0  0  0  0  0  0  0  0  0  0  0
    0.9581   -1.6927    0.5702 C   0  0  0  0  0  0  0  0  0  0  0  0
    2.0347   -1.8676   -0.2881 N   0  0  0  0  0  0  0  0  0  0  0  0
    2.3559   -0.8697   -1.1951 C   0  0  0  0  0  0  0  0  0  0  0  0
    3.6326   -0.7088   -1.7193 C   0  0  0  0  0  0  0  0  0  0  0  0
    3.8513    0.2664   -2.6772 C   0  0  0  0  0  0  0  0  0  0  0  0
    2.8572    1.1221   -3.1083 C   0  0  0  0  0  0  0  0  0  0  0  0
   -1.0641   -0.4587    1.1765 C   0  0  0  0  0  0  0  0  0  0  0  0
   -1.1631   -1.2079    2.3352 C   0  0  0  0  0  0  0  0  0  0  0  0
   -0.2281   -2.1950    2.5888 C   0  0  0  0  0  0  0  0  0  0  0  0
    0.8526   -2.4145    1.7555 C   0  0  0  0  0  0  0  0  0  0  0  0
   -1.8566    0.6117    0.8934 O   0  0  0  0  0  0  0  0  0  0  0  0
   -2.5195   -1.2117   -0.9863 O   0  0  0  0  0  0  0  0  0  0  0  0
   -4.4968    2.6139   -3.8707 S   0  0  0  0  0  0  0  0  0  0  0  0
   -0.3995   -3.2468    4.0623 S   0  0  0  0  0  0  0  0  0  0  0  0
    5.5301    0.4104   -3.3714 S   0  0  0  0  0  0  0  0  0  0  0  0
    5.4266    1.5032   -4.3213 O   0  0  0  0  0  0  0  0  0  0  0  0
    5.5021   -1.0305   -4.2374 O   0  0  0  0  0  0  0  0  0  0  0  0
    4.7082   -1.0400   -5.3935 C   0  0  0  0  0  0  0  0  0  0  0  0
   -3.8547    3.6729   -4.6286 O   0  0  0  0  0  0  0  0  0  0  0  0
   -5.0686    3.2827   -2.4358 O   0  0  0  0  0  0  0  0  0  0  0  0
   -4.2592    4.2693   -1.8550 C   0  0  0  0  0  0  0  0  0  0  0  0
   -1.6303   -2.7897    4.6820 O   0  0  0  0  0  0  0  0  0  0  0  0
   -0.7405   -4.6658    3.2197 O   0  0  0  0  0  0  0  0  0  0  0  0
   -1.9869   -4.7110    2.5803 C   0  0  0  0  0  0  0  0  0  0  0  0
   -4.4250    0.2795   -2.2513 H   0  0  0  0  0  0  0  0  0  0  0  0
   -1.6788    2.9648   -4.0070 H   0  0  0  0  0  0  0  0  0  0  0  0
   -1.9438   -1.0570    3.0634 H   0  0  0  0  0  0  0  0  0  0  0  0
    1.5828   -3.1508    2.0452 H   0  0  0  0  0  0  0  0  0  0  0  0
    4.4645   -1.3205   -1.4098 H   0  0  0  0  0  0  0  0  0  0  0  0
    3.1161    1.8312   -3.8782 H   0  0  0  0  0  0  0  0  0  0  0  0
    1.8456   -4.2981   -0.6482 C   0  0  0  0  0  0  0  0  0  0  0  0
    2.6245   -5.6064   -0.6675 C   0  0  0  0  0  0  0  0  0  0  0  0
    0.3828    4.2960   -2.3895 C   0  0  0  0  0  0  0  0  0  0  0  0
    0.6480    5.6929   -2.9343 C   0  0  0  0  0  0  0  0  0  0  0  0
   -2.8506    0.9689    1.8211 C   0  0  0  0  0  0  0  0  0  0  0  0
   -3.8133   -1.7379   -0.8364 C   0  0  0  0  0  0  0  0  0  0  0  0
   -4.9004    4.9099   -1.2508 H   0  0  0  0  0  0  0  0  0  0  0  0
   -3.7820    4.8689   -2.6379 H   0  0  0  0  0  0  0  0  0  0  0  0
   -3.4869    3.8154   -1.2241 H   0  0  0  0  0  0  0  0  0  0  0  0
   -2.2700   -5.7582    2.4800 H   0  0  0  0  0  0  0  0  0  0  0  0
   -1.9319   -4.2442    1.5903 H   0  0  0  0  0  0  0  0  0  0  0  0
   -2.7359   -4.1889    3.1857 H   0  0  0  0  0  0  0  0  0  0  0  0
    5.1327   -1.7706   -6.0808 H   0  0  0  0  0  0  0  0  0  0  0  0
    4.7211   -0.0503   -5.8626 H   0  0  0  0  0  0  0  0  0  0  0  0
    3.6753   -1.3123   -5.1521 H   0  0  0  0  0  0  0  0  0  0  0  0
    3.2213   -3.2945    0.6989 H   0  0  0  0  0  0  0  0  0  0  0  0
    3.5543   -3.0687   -1.0190 H   0  0  0  0  0  0  0  0  0  0  0  0
    1.4141   -4.1073   -1.6332 H   0  0  0  0  0  0  0  0  0  0  0  0
    1.0242   -4.3717    0.0652 H   0  0  0  0  0  0  0  0  0  0  0  0
    3.4361   -5.5614   -1.3905 H   0  0  0  0  0  0  0  0  0  0  0  0
    1.9708   -6.4317   -0.9366 H   0  0  0  0  0  0  0  0  0  0  0  0
    3.0487   -5.8126    0.3127 H   0  0  0  0  0  0  0  0  0  0  0  0
   -3.3501    1.8387    1.3958 H   0  0  0  0  0  0  0  0  0  0  0  0
   -2.4180    1.2362    2.7906 H   0  0  0  0  0  0  0  0  0  0  0  0
   -3.5811    0.1661    1.9635 H   0  0  0  0  0  0  0  0  0  0  0  0
   -3.7003   -2.6244   -0.2129 H   0  0  0  0  0  0  0  0  0  0  0  0
   -4.2450   -2.0276   -1.8005 H   0  0  0  0  0  0  0  0  0  0  0  0
   -4.4842   -1.0302   -0.3392 H   0  0  0  0  0  0  0  0  0  0  0  0
    0.3488    6.4454   -2.2095 H   0  0  0  0  0  0  0  0  0  0  0  0
    0.0853    5.8573   -3.8504 H   0  0  0  0  0  0  0  0  0  0  0  0
    1.7054    5.8265   -3.1516 H   0  0  0  0  0  0  0  0  0  0  0  0
    0.9315    4.1485   -1.4566 H   0  0  0  0  0  0  0  0  0  0  0  0
   -0.6800    4.1840   -2.1708 H   0  0  0  0  0  0  0  0  0  0  0  0
    0.3241    3.3770   -4.3545 H   0  0  0  0  0  0  0  0  0  0  0  0
    1.8937    3.3296   -3.5551 H   0  0  0  0  0  0  0  0  0  0  0  0
  3  4  4  0  0  0  0
  4  5  4  0  0  0  0
  5  6  4  0  0  0  0
  6  7  4  0  0  0  0
  3  8  4  0  0  0  0
  7  8  4  0  0  0  0
  5  9  1  0  0  0  0
  9 10  4  0  0  0  0
 10 11  4  0  0  0  0
  1 12  1  0  0  0  0
  6 12  1  0  0  0  0
 11 12  1  0  0  0  0
  9 13  1  0  0  0  0
 13 14  4  0  0  0  0
  2 15  1  0  0  0  0
 14 15  1  0  0  0  0
 10 16  4  0  0  0  0
 15 16  1  0  0  0  0
 16 17  4  0  0  0  0
 17 18  4  0  0  0  0
 11 19  4  0  0  0  0
 18 19  4  0  0  0  0
 13 20  4  0  0  0  0
 20 21  4  0  0  0  0
 21 22  4  0  0  0  0
 14 23  4  0  0  0  0
 22 23  4  0  0  0  0
 20 24  1  0  0  0  0
  4 25  1  0  0  0  0
  8 26  1  0  0  0  0
 22 27  1  0  0  0  0
 18 28  1  0  0  0  0
 28 29  2  0  0  0  0
 28 30  1  0  0  0  0
 30 31  1  0  0  0  0
 26 32  2  0  0  0  0
 26 33  1  0  0  0  0
 33 34  1  0  0  0  0
 27 35  2  0  0  0  0
 27 36  1  0  0  0  0
 36 37  1  0  0  0  0
  3 38  1  0  0  0  0
  7 39  1  0  0  0  0
 21 40  1  0  0  0  0
 23 41  1  0  0  0  0
 17 42  1  0  0  0  0
 19 43  1  0  0  0  0
  2 44  1  0  0  0  0
 44 45  1  0  0  0  0
  1 46  1  0  0  0  0
 46 47  1  0  0  0  0
 24 48  1  0  0  0  0
 25 49  1  0  0  0  0
 34 50  1  0  0  0  0
 34 51  1  0  0  0  0
 34 52  1  0  0  0  0
 37 53  1  0  0  0  0
 37 54  1  0  0  0  0
 37 55  1  0  0  0  0
 31 56  1  0  0  0  0
 31 57  1  0  0  0  0
 31 58  1  0  0  0  0
  2 59  1  0  0  0  0
  2 60  1  0  0  0  0
 44 61  1  0  0  0  0
 44 62  1  0  0  0  0
 45 63  1  0  0  0  0
 45 64  1  0  0  0  0
 45 65  1  0  0  0  0
 48 66  1  0  0  0  0
 48 67  1  0  0  0  0
 48 68  1  0  0  0  0
 49 69  1  0  0  0  0
 49 70  1  0  0  0  0
 49 71  1  0  0  0  0
 47 72  1  0  0  0  0
 47 73  1  0  0  0  0
 47 74  1  0  0  0  0
 46 75  1  0  0  0  0
 46 76  1  0  0  0  0
  1 77  1  0  0  0  0
  1 78  1  0  0  0  0
M  END
