 energy: -260.584160343124 gnorm: 0.000329703059 xtb: 6.7.1 (edcfbbe)
          12022413063D

156164  0     0  0            999 V2000
   -0.5603    2.6371   -2.1294 C   0  0  0  0  0  0  0  0  0  0  0  0
    2.0133   -2.8843    1.9850 C   0  0  0  0  0  0  0  0  0  0  0  0
   -4.3386   -0.6844   -1.3935 C   0  0  0  0  0  0  0  0  0  0  0  0
   -3.2948   -1.1117   -0.5948 C   0  0  0  0  0  0  0  0  0  0  0  0
   -2.1203   -0.3252   -0.4879 C   0  0  0  0  0  0  0  0  0  0  0  0
   -1.9195    0.7521   -1.3820 C   0  0  0  0  0  0  0  0  0  0  0  0
   -2.9946    1.1753   -2.1618 C   0  0  0  0  0  0  0  0  0  0  0  0
   -4.1861    0.4881   -2.1173 C   0  0  0  0  0  0  0  0  0  0  0  0
   -1.0900   -0.6244    0.4539 C   0  0  0  0  0  0  0  0  0  0  0  0
    0.2321   -0.2701    0.0585 C   0  0  0  0  0  0  0  0  0  0  0  0
    0.4347    0.7183   -0.9337 C   0  0  0  0  0  0  0  0  0  0  0  0
   -0.6737    1.3521   -1.4676 N   0  0  0  0  0  0  0  0  0  0  0  0
   -1.2525   -1.1685    1.7616 C   0  0  0  0  0  0  0  0  0  0  0  0
   -0.1022   -1.7067    2.3943 C   0  0  0  0  0  0  0  0  0  0  0  0
    1.0678   -1.8409    1.6591 N   0  0  0  0  0  0  0  0  0  0  0  0
    1.3306   -0.9303    0.6532 C   0  0  0  0  0  0  0  0  0  0  0  0
    2.6181   -0.6345    0.2287 C   0  0  0  0  0  0  0  0  0  0  0  0
    2.8011    0.3383   -0.7369 C   0  0  0  0  0  0  0  0  0  0  0  0
    1.7439    1.0174   -1.3101 C   0  0  0  0  0  0  0  0  0  0  0  0
   -2.4506   -1.0891    2.5189 C   0  0  0  0  0  0  0  0  0  0  0  0
   -2.4794   -1.5541    3.8232 C   0  0  0  0  0  0  0  0  0  0  0  0
   -1.3205   -1.9971    4.4335 C   0  0  0  0  0  0  0  0  0  0  0  0
   -0.1319   -2.0655    3.7328 C   0  0  0  0  0  0  0  0  0  0  0  0
   -3.5246   -0.4442    1.9519 O   0  0  0  0  0  0  0  0  0  0  0  0
   -3.2774   -2.3036    0.0731 O   0  0  0  0  0  0  0  0  0  0  0  0
   -5.6248    1.1224   -3.0338 S   0  0  0  0  0  0  0  0  0  0  0  0
   -1.2623   -2.2219    6.2315 S   0  0  0  0  0  0  0  0  0  0  0  0
    4.5293    0.7742   -1.1425 S   0  0  0  0  0  0  0  0  0  0  0  0
    4.3945    2.0734   -1.7863 O   0  0  0  0  0  0  0  0  0  0  0  0
    4.7371   -0.3681   -2.3590 O   0  0  0  0  0  0  0  0  0  0  0  0
    4.1232   -0.0908   -3.5870 C   0  0  0  0  0  0  0  0  0  0  0  0
   -5.0853    2.1868   -3.8624 O   0  0  0  0  0  0  0  0  0  0  0  0
   -6.3839    1.8264   -1.7174 O   0  0  0  0  0  0  0  0  0  0  0  0
   -5.7850    2.9986   -1.2171 C   0  0  0  0  0  0  0  0  0  0  0  0
   -2.6330   -2.5342    6.6073 O   0  0  0  0  0  0  0  0  0  0  0  0
   -0.4352   -3.7033    6.1933 O   0  0  0  0  0  0  0  0  0  0  0  0
   -1.1833   -4.8048    5.7589 C   0  0  0  0  0  0  0  0  0  0  0  0
   -5.2705   -1.2218   -1.4620 H   0  0  0  0  0  0  0  0  0  0  0  0
   -2.9535    2.0344   -2.8088 H   0  0  0  0  0  0  0  0  0  0  0  0
   -3.3820   -1.5384    4.4121 H   0  0  0  0  0  0  0  0  0  0  0  0
    0.7569   -2.3922    4.2453 H   0  0  0  0  0  0  0  0  0  0  0  0
    3.4919   -1.0983    0.6507 H   0  0  0  0  0  0  0  0  0  0  0  0
    1.9903    1.7697   -2.0411 H   0  0  0  0  0  0  0  0  0  0  0  0
    1.3474   -4.2635    2.0367 C   0  0  0  0  0  0  0  0  0  0  0  0
    2.3868   -5.3693    2.1691 C   0  0  0  0  0  0  0  0  0  0  0  0
   -1.1535    3.7601   -1.2697 C   0  0  0  0  0  0  0  0  0  0  0  0
   -1.3677    5.0256   -2.0885 C   0  0  0  0  0  0  0  0  0  0  0  0
   -4.8056   -0.7224    2.4701 C   0  0  0  0  0  0  0  0  0  0  0  0
   -4.3431   -3.1937   -0.1380 C   0  0  0  0  0  0  0  0  0  0  0  0
   -6.5455    3.5323   -0.6492 H   0  0  0  0  0  0  0  0  0  0  0  0
   -5.4456    3.6233   -2.0498 H   0  0  0  0  0  0  0  0  0  0  0  0
   -4.9359    2.7564   -0.5727 H   0  0  0  0  0  0  0  0  0  0  0  0
   -0.7399   -5.7039    6.1862 H   0  0  0  0  0  0  0  0  0  0  0  0
   -1.1783   -4.8722    4.6650 H   0  0  0  0  0  0  0  0  0  0  0  0
   -2.2169   -4.7065    6.1054 H   0  0  0  0  0  0  0  0  0  0  0  0
    4.7156   -0.5616   -4.3710 H   0  0  0  0  0  0  0  0  0  0  0  0
    4.0980    0.9919   -3.7531 H   0  0  0  0  0  0  0  0  0  0  0  0
    3.1015   -0.4854   -3.6082 H   0  0  0  0  0  0  0  0  0  0  0  0
    2.5229   -2.6688    2.9320 H   0  0  0  0  0  0  0  0  0  0  0  0
    2.7617   -2.9077    1.1927 H   0  0  0  0  0  0  0  0  0  0  0  0
    0.7721   -4.4046    1.1193 H   0  0  0  0  0  0  0  0  0  0  0  0
    0.6535   -4.3150    2.8753 H   0  0  0  0  0  0  0  0  0  0  0  0
    3.0679   -5.3638    1.3205 H   0  0  0  0  0  0  0  0  0  0  0  0
    1.9009   -6.3407    2.2100 H   0  0  0  0  0  0  0  0  0  0  0  0
    2.9678   -5.2414    3.0797 H   0  0  0  0  0  0  0  0  0  0  0  0
   -5.5127   -0.3419    1.7338 H   0  0  0  0  0  0  0  0  0  0  0  0
   -4.9812   -0.2133    3.4227 H   0  0  0  0  0  0  0  0  0  0  0  0
   -4.9500   -1.7978    2.6032 H   0  0  0  0  0  0  0  0  0  0  0  0
   -4.0993   -4.0862    0.4374 H   0  0  0  0  0  0  0  0  0  0  0  0
   -4.4378   -3.4604   -1.1963 H   0  0  0  0  0  0  0  0  0  0  0  0
   -5.2963   -2.7867    0.2149 H   0  0  0  0  0  0  0  0  0  0  0  0
   -1.7522    5.8247   -1.4595 H   0  0  0  0  0  0  0  0  0  0  0  0
   -2.0841    4.8469   -2.8870 H   0  0  0  0  0  0  0  0  0  0  0  0
   -0.4324    5.3592   -2.5341 H   0  0  0  0  0  0  0  0  0  0  0  0
   -0.4702    3.9688   -0.4425 H   0  0  0  0  0  0  0  0  0  0  0  0
   -2.0992    3.4248   -0.8434 H   0  0  0  0  0  0  0  0  0  0  0  0
   -1.0665    2.5969   -3.0972 H   0  0  0  0  0  0  0  0  0  0  0  0
    0.4860    2.8588   -2.3238 H   0  0  0  0  0  0  0  0  0  0  0  0
    1.6742    2.5312    2.0045 C   0  0  0  0  0  0  0  0  0  0  0  0
    3.2588   -2.6174    6.9262 C   0  0  0  0  0  0  0  0  0  0  0  0
   -2.6424    1.3865    4.4619 C   0  0  0  0  0  0  0  0  0  0  0  0
   -1.6116    0.9084    5.2493 C   0  0  0  0  0  0  0  0  0  0  0  0
   -0.2666    1.0166    4.8053 C   0  0  0  0  0  0  0  0  0  0  0  0
   -0.0120    1.5262    3.5064 C   0  0  0  0  0  0  0  0  0  0  0  0
   -1.0806    1.8931    2.6940 C   0  0  0  0  0  0  0  0  0  0  0  0
   -2.3654    1.8452    3.1857 C   0  0  0  0  0  0  0  0  0  0  0  0
    0.8302    0.5042    5.5582 C   0  0  0  0  0  0  0  0  0  0  0  0
    2.0088    0.1695    4.8442 C   0  0  0  0  0  0  0  0  0  0  0  0
    2.2602    0.7737    3.5922 C   0  0  0  0  0  0  0  0  0  0  0  0
    1.2970    1.6036    3.0522 N   0  0  0  0  0  0  0  0  0  0  0  0
    0.8537    0.2592    6.9650 C   0  0  0  0  0  0  0  0  0  0  0  0
    1.6835   -0.7767    7.4601 C   0  0  0  0  0  0  0  0  0  0  0  0
    2.5970   -1.3695    6.6017 N   0  0  0  0  0  0  0  0  0  0  0  0
    2.9377   -0.7304    5.4161 C   0  0  0  0  0  0  0  0  0  0  0  0
    4.1465   -0.9519    4.7635 C   0  0  0  0  0  0  0  0  0  0  0  0
    4.3943   -0.3180    3.5573 C   0  0  0  0  0  0  0  0  0  0  0  0
    3.4785    0.5349    2.9672 C   0  0  0  0  0  0  0  0  0  0  0  0
    0.1240    1.0662    7.8741 C   0  0  0  0  0  0  0  0  0  0  0  0
   -0.0001    0.6669    9.1921 C   0  0  0  0  0  0  0  0  0  0  0  0
    0.6697   -0.4660    9.6123 C   0  0  0  0  0  0  0  0  0  0  0  0
    1.5576   -1.1427    8.7982 C   0  0  0  0  0  0  0  0  0  0  0  0
   -0.3823    2.2282    7.3763 O   0  0  0  0  0  0  0  0  0  0  0  0
   -1.8247    0.2173    6.4100 O   0  0  0  0  0  0  0  0  0  0  0  0
   -3.7747    2.0884    2.0780 S   0  0  0  0  0  0  0  0  0  0  0  0
    0.3879   -1.1025   11.2955 S   0  0  0  0  0  0  0  0  0  0  0  0
    6.0254   -0.4831    2.7557 S   0  0  0  0  0  0  0  0  0  0  0  0
    5.7281   -0.2882    1.3424 O   0  0  0  0  0  0  0  0  0  0  0  0
    6.2554   -2.1333    3.0111 O   0  0  0  0  0  0  0  0  0  0  0  0
    5.8393   -3.0167    2.0050 C   0  0  0  0  0  0  0  0  0  0  0  0
   -3.1760    2.4246    0.7962 O   0  0  0  0  0  0  0  0  0  0  0  0
   -4.3015    3.5451    2.7489 O   0  0  0  0  0  0  0  0  0  0  0  0
   -3.4755    4.6562    2.5357 C   0  0  0  0  0  0  0  0  0  0  0  0
   -0.6617   -0.2439   11.8162 O   0  0  0  0  0  0  0  0  0  0  0  0
   -0.3016   -2.5511   10.8175 O   0  0  0  0  0  0  0  0  0  0  0  0
   -1.5623   -2.4780   10.1995 C   0  0  0  0  0  0  0  0  0  0  0  0
   -3.6687    1.3534    4.7897 H   0  0  0  0  0  0  0  0  0  0  0  0
   -0.9605    2.1759    1.6610 H   0  0  0  0  0  0  0  0  0  0  0  0
   -0.6066    1.1918    9.9122 H   0  0  0  0  0  0  0  0  0  0  0  0
    2.1153   -1.9502    9.2410 H   0  0  0  0  0  0  0  0  0  0  0  0
    4.9059   -1.6011    5.1655 H   0  0  0  0  0  0  0  0  0  0  0  0
    3.7405    0.9774    2.0224 H   0  0  0  0  0  0  0  0  0  0  0  0
    2.9365   -3.7179    5.9106 C   0  0  0  0  0  0  0  0  0  0  0  0
    3.6061   -5.0286    6.3029 C   0  0  0  0  0  0  0  0  0  0  0  0
    2.6723    3.5874    2.4925 C   0  0  0  0  0  0  0  0  0  0  0  0
    3.1169    4.4672    1.3305 C   0  0  0  0  0  0  0  0  0  0  0  0
   -1.0176    3.1072    8.2719 C   0  0  0  0  0  0  0  0  0  0  0  0
   -3.0917    0.3058    7.0236 C   0  0  0  0  0  0  0  0  0  0  0  0
   -4.0902    5.5514    2.6235 H   0  0  0  0  0  0  0  0  0  0  0  0
   -3.0420    4.6094    1.5312 H   0  0  0  0  0  0  0  0  0  0  0  0
   -2.6677    4.6873    3.2753 H   0  0  0  0  0  0  0  0  0  0  0  0
   -2.0803   -3.4149   10.4003 H   0  0  0  0  0  0  0  0  0  0  0  0
   -1.4610   -2.3361    9.1186 H   0  0  0  0  0  0  0  0  0  0  0  0
   -2.1371   -1.6502   10.6282 H   0  0  0  0  0  0  0  0  0  0  0  0
    6.6263   -3.7556    1.8510 H   0  0  0  0  0  0  0  0  0  0  0  0
    5.6767   -2.4675    1.0706 H   0  0  0  0  0  0  0  0  0  0  0  0
    4.9152   -3.5195    2.3025 H   0  0  0  0  0  0  0  0  0  0  0  0
    2.9145   -2.9611    7.8971 H   0  0  0  0  0  0  0  0  0  0  0  0
    4.3420   -2.4660    6.9934 H   0  0  0  0  0  0  0  0  0  0  0  0
    3.2797   -3.4188    4.9187 H   0  0  0  0  0  0  0  0  0  0  0  0
    1.8537   -3.8514    5.8805 H   0  0  0  0  0  0  0  0  0  0  0  0
    4.6883   -4.9165    6.3278 H   0  0  0  0  0  0  0  0  0  0  0  0
    3.3594   -5.8109    5.5893 H   0  0  0  0  0  0  0  0  0  0  0  0
    3.2708   -5.3490    7.2864 H   0  0  0  0  0  0  0  0  0  0  0  0
   -1.3053    3.9740    7.6782 H   0  0  0  0  0  0  0  0  0  0  0  0
   -0.3387    3.4226    9.0707 H   0  0  0  0  0  0  0  0  0  0  0  0
   -1.9115    2.6611    8.7184 H   0  0  0  0  0  0  0  0  0  0  0  0
   -2.9661   -0.1239    8.0159 H   0  0  0  0  0  0  0  0  0  0  0  0
   -3.8407   -0.2825    6.4885 H   0  0  0  0  0  0  0  0  0  0  0  0
   -3.4216    1.3448    7.1046 H   0  0  0  0  0  0  0  0  0  0  0  0
    3.8306    5.2124    1.6709 H   0  0  0  0  0  0  0  0  0  0  0  0
    2.2656    4.9846    0.8936 H   0  0  0  0  0  0  0  0  0  0  0  0
    3.5892    3.8684    0.5547 H   0  0  0  0  0  0  0  0  0  0  0  0
    3.5420    3.1048    2.9391 H   0  0  0  0  0  0  0  0  0  0  0  0
    2.1977    4.1963    3.2653 H   0  0  0  0  0  0  0  0  0  0  0  0
    0.7821    3.0498    1.6610 H   0  0  0  0  0  0  0  0  0  0  0  0
    2.0947    1.9905    1.1529 H   0  0  0  0  0  0  0  0  0  0  0  0
  1 12  1  0  0  0  0
  1 46  1  0  0  0  0
  1 77  1  0  0  0  0
  1 78  1  0  0  0  0
  2 15  1  0  0  0  0
  2 44  1  0  0  0  0
  2 59  1  0  0  0  0
  2 60  1  0  0  0  0
  3  4  2  0  0  0  0
  3  8  1  0  0  0  0
  3 38  1  0  0  0  0
  4  5  1  0  0  0  0
  4 25  1  0  0  0  0
  5  6  2  0  0  0  0
  5  9  1  0  0  0  0
  6  7  1  0  0  0  0
  6 12  1  0  0  0  0
  7  8  2  0  0  0  0
  7 39  1  0  0  0  0
  8 26  1  0  0  0  0
  9 10  2  0  0  0  0
  9 13  1  0  0  0  0
 10 16  1  0  0  0  0
 11 10  1  0  0  0  0
 11 12  1  0  0  0  0
 11 19  1  0  0  0  0
 13 14  2  0  0  0  0
 13 20  1  0  0  0  0
 14 15  1  0  0  0  0
 14 23  1  0  0  0  0
 15 16  1  0  0  0  0
 16 17  2  0  0  0  0
 17 18  1  0  0  0  0
 17 42  1  0  0  0  0
 18 19  2  0  0  0  0
 18 28  1  0  0  0  0
 19 43  1  0  0  0  0
 20 21  2  0  0  0  0
 20 24  1  0  0  0  0
 21 22  1  0  0  0  0
 21 40  1  0  0  0  0
 22 23  2  0  0  0  0
 22 27  1  0  0  0  0
 23 41  1  0  0  0  0
 24 48  1  0  0  0  0
 25 49  1  0  0  0  0
 26 32  2  0  0  0  0
 26 33  1  0  0  0  0
 27 35  2  0  0  0  0
 27 36  1  0  0  0  0
 28 29  2  0  0  0  0
 28 30  1  0  0  0  0
 30 31  1  0  0  0  0
 31 56  1  0  0  0  0
 31 57  1  0  0  0  0
 31 58  1  0  0  0  0
 33 34  1  0  0  0  0
 34 50  1  0  0  0  0
 34 51  1  0  0  0  0
 34 52  1  0  0  0  0
 36 37  1  0  0  0  0
 37 53  1  0  0  0  0
 37 54  1  0  0  0  0
 37 55  1  0  0  0  0
 44 45  1  0  0  0  0
 44 61  1  0  0  0  0
 44 62  1  0  0  0  0
 45 63  1  0  0  0  0
 45 64  1  0  0  0  0
 45 65  1  0  0  0  0
 46 47  1  0  0  0  0
 46 75  1  0  0  0  0
 46 76  1  0  0  0  0
 47 72  1  0  0  0  0
 47 73  1  0  0  0  0
 47 74  1  0  0  0  0
 48 66  1  0  0  0  0
 48 67  1  0  0  0  0
 48 68  1  0  0  0  0
 49 69  1  0  0  0  0
 49 70  1  0  0  0  0
 49 71  1  0  0  0  0
 79 90  1  0  0  0  0
 79124  1  0  0  0  0
 79155  1  0  0  0  0
 79156  1  0  0  0  0
 80 93  1  0  0  0  0
 80122  1  0  0  0  0
 80137  1  0  0  0  0
 80138  1  0  0  0  0
 81 82  2  0  0  0  0
 81 86  1  0  0  0  0
 81116  1  0  0  0  0
 82 83  1  0  0  0  0
 82103  1  0  0  0  0
 83 84  2  0  0  0  0
 83 87  1  0  0  0  0
 84 85  1  0  0  0  0
 84 90  1  0  0  0  0
 85 86  2  0  0  0  0
 85117  1  0  0  0  0
 86104  1  0  0  0  0
 87 88  2  0  0  0  0
 87 91  1  0  0  0  0
 88 94  1  0  0  0  0
 89 88  1  0  0  0  0
 89 90  1  0  0  0  0
 89 97  1  0  0  0  0
 91 92  2  0  0  0  0
 91 98  1  0  0  0  0
 92 93  1  0  0  0  0
 92101  1  0  0  0  0
 93 94  1  0  0  0  0
 94 95  2  0  0  0  0
 95 96  1  0  0  0  0
 95120  1  0  0  0  0
 96 97  2  0  0  0  0
 96106  1  0  0  0  0
 97121  1  0  0  0  0
 98 99  2  0  0  0  0
 98102  1  0  0  0  0
 99100  1  0  0  0  0
 99118  1  0  0  0  0
100101  2  0  0  0  0
100105  1  0  0  0  0
101119  1  0  0  0  0
102126  1  0  0  0  0
103127  1  0  0  0  0
104110  2  0  0  0  0
104111  1  0  0  0  0
105113  2  0  0  0  0
105114  1  0  0  0  0
106107  2  0  0  0  0
106108  1  0  0  0  0
108109  1  0  0  0  0
109134  1  0  0  0  0
109135  1  0  0  0  0
109136  1  0  0  0  0
111112  1  0  0  0  0
112128  1  0  0  0  0
112129  1  0  0  0  0
112130  1  0  0  0  0
114115  1  0  0  0  0
115131  1  0  0  0  0
115132  1  0  0  0  0
115133  1  0  0  0  0
122123  1  0  0  0  0
122139  1  0  0  0  0
122140  1  0  0  0  0
123141  1  0  0  0  0
123142  1  0  0  0  0
123143  1  0  0  0  0
124125  1  0  0  0  0
124153  1  0  0  0  0
124154  1  0  0  0  0
125150  1  0  0  0  0
125151  1  0  0  0  0
125152  1  0  0  0  0
126144  1  0  0  0  0
126145  1  0  0  0  0
126146  1  0  0  0  0
127147  1  0  0  0  0
127148  1  0  0  0  0
127149  1  0  0  0  0
M  END
