 energy: -127.008970897896 gnorm: 0.000519785811 xtb: 6.7.1 (edcfbbe)
          03032513553D

 78 82  0     0  0            999 V2000
    0.9619    3.3587   -3.2915 C   0  0  0  0  0  0  0  0  0  0  0  0
    2.5429   -3.1372   -0.4088 C   0  0  0  0  0  0  0  0  0  0  0  0
   -3.5566    1.5183   -1.8349 C   0  0  0  0  0  0  0  0  0  0  0  0
   -2.6070    0.6187   -1.3955 C   0  0  0  0  0  0  0  0  0  0  0  0
   -1.2261    0.8804   -1.6039 C   0  0  0  0  0  0  0  0  0  0  0  0
   -0.8579    1.9511   -2.4511 C   0  0  0  0  0  0  0  0  0  0  0  0
   -1.8285    2.8469   -2.8833 C   0  0  0  0  0  0  0  0  0  0  0  0
   -3.1629    2.6554   -2.5433 C   0  0  0  0  0  0  0  0  0  0  0  0
   -0.1904    0.0519   -1.0693 C   0  0  0  0  0  0  0  0  0  0  0  0
    1.0074   -0.0351   -1.8219 C   0  0  0  0  0  0  0  0  0  0  0  0
    1.3018    0.9736   -2.7718 C   0  0  0  0  0  0  0  0  0  0  0  0
    0.4641    2.0745   -2.8421 N   0  0  0  0  0  0  0  0  0  0  0  0
   -0.2899   -0.7421    0.1072 C   0  0  0  0  0  0  0  0  0  0  0  0
    0.5526   -1.8739    0.2428 C   0  0  0  0  0  0  0  0  0  0  0  0
    1.6149   -2.0468   -0.6327 N   0  0  0  0  0  0  0  0  0  0  0  0
    1.8904   -1.1272   -1.6321 C   0  0  0  0  0  0  0  0  0  0  0  0
    2.9836   -1.2507   -2.4803 C   0  0  0  0  0  0  0  0  0  0  0  0
    3.2350   -0.2841   -3.4527 C   0  0  0  0  0  0  0  0  0  0  0  0
    2.4118    0.8304   -3.5881 C   0  0  0  0  0  0  0  0  0  0  0  0
   -1.1688   -0.4082    1.1743 C   0  0  0  0  0  0  0  0  0  0  0  0
   -1.3847   -1.3074    2.1950 C   0  0  0  0  0  0  0  0  0  0  0  0
   -0.7115   -2.5314    2.1949 C   0  0  0  0  0  0  0  0  0  0  0  0
    0.2752   -2.7945    1.2487 C   0  0  0  0  0  0  0  0  0  0  0  0
   -1.7010    0.8435    1.1357 O   0  0  0  0  0  0  0  0  0  0  0  0
   -2.9093   -0.5740   -0.8133 O   0  0  0  0  0  0  0  0  0  0  0  0
   -4.1382    3.6566   -3.0037 C   0  0  0  0  0  0  0  0  0  0  0  0
   -1.0478   -3.4974    3.2504 C   0  0  0  0  0  0  0  0  0  0  0  0
    4.3806   -0.4005   -4.3707 C   0  0  0  0  0  0  0  0  0  0  0  0
    4.6753    0.4215   -5.2082 O   0  0  0  0  0  0  0  0  0  0  0  0
    5.0897   -1.5340   -4.1872 O   0  0  0  0  0  0  0  0  0  0  0  0
    6.2051   -1.7009   -5.0457 C   0  0  0  0  0  0  0  0  0  0  0  0
   -3.8552    4.6575   -3.6225 O   0  0  0  0  0  0  0  0  0  0  0  0
   -5.4077    3.3504   -2.6641 O   0  0  0  0  0  0  0  0  0  0  0  0
   -6.3922    4.2791   -3.0846 C   0  0  0  0  0  0  0  0  0  0  0  0
   -1.8936   -3.3179    4.0981 O   0  0  0  0  0  0  0  0  0  0  0  0
   -0.3042   -4.6232    3.1765 O   0  0  0  0  0  0  0  0  0  0  0  0
   -0.5503   -5.6319    4.1425 C   0  0  0  0  0  0  0  0  0  0  0  0
   -4.6066    1.3642   -1.6558 H   0  0  0  0  0  0  0  0  0  0  0  0
   -1.5956    3.6982   -3.4993 H   0  0  0  0  0  0  0  0  0  0  0  0
   -2.0723   -1.1150    3.0016 H   0  0  0  0  0  0  0  0  0  0  0  0
    0.7836   -3.7384    1.3223 H   0  0  0  0  0  0  0  0  0  0  0  0
    3.6583   -2.0859   -2.4392 H   0  0  0  0  0  0  0  0  0  0  0  0
    2.6561    1.5338   -4.3667 H   0  0  0  0  0  0  0  0  0  0  0  0
    2.1805   -4.3794   -1.2268 C   0  0  0  0  0  0  0  0  0  0  0  0
    3.1731   -5.5083   -0.9837 C   0  0  0  0  0  0  0  0  0  0  0  0
    0.9114    4.3960   -2.1640 C   0  0  0  0  0  0  0  0  0  0  0  0
    1.4405    5.7419   -2.6410 C   0  0  0  0  0  0  0  0  0  0  0  0
   -2.5645    1.2345    2.1738 C   0  0  0  0  0  0  0  0  0  0  0  0
   -4.2603   -0.9041   -0.6109 C   0  0  0  0  0  0  0  0  0  0  0  0
   -7.3512    3.8695   -2.7758 H   0  0  0  0  0  0  0  0  0  0  0  0
   -6.3586    4.4039   -4.1695 H   0  0  0  0  0  0  0  0  0  0  0  0
   -6.2221    5.2521   -2.6171 H   0  0  0  0  0  0  0  0  0  0  0  0
    0.3944   -5.8742    4.6300 H   0  0  0  0  0  0  0  0  0  0  0  0
   -0.9427   -6.5151    3.6356 H   0  0  0  0  0  0  0  0  0  0  0  0
   -1.2736   -5.2729    4.8775 H   0  0  0  0  0  0  0  0  0  0  0  0
    6.6479   -2.6599   -4.7885 H   0  0  0  0  0  0  0  0  0  0  0  0
    6.9252   -0.8933   -4.8956 H   0  0  0  0  0  0  0  0  0  0  0  0
    5.8860   -1.6929   -6.0902 H   0  0  0  0  0  0  0  0  0  0  0  0
    2.5572   -3.3788    0.6551 H   0  0  0  0  0  0  0  0  0  0  0  0
    3.5510   -2.8037   -0.6613 H   0  0  0  0  0  0  0  0  0  0  0  0
    2.1686   -4.1173   -2.2865 H   0  0  0  0  0  0  0  0  0  0  0  0
    1.1745   -4.7042   -0.9546 H   0  0  0  0  0  0  0  0  0  0  0  0
    4.1777   -5.2024   -1.2676 H   0  0  0  0  0  0  0  0  0  0  0  0
    2.9038   -6.3837   -1.5687 H   0  0  0  0  0  0  0  0  0  0  0  0
    3.1846   -5.7885    0.0673 H   0  0  0  0  0  0  0  0  0  0  0  0
   -2.8780    2.2480    1.9263 H   0  0  0  0  0  0  0  0  0  0  0  0
   -2.0530    1.2377    3.1419 H   0  0  0  0  0  0  0  0  0  0  0  0
   -3.4441    0.5863    2.2358 H   0  0  0  0  0  0  0  0  0  0  0  0
   -4.2514   -1.8798   -0.1266 H   0  0  0  0  0  0  0  0  0  0  0  0
   -4.8038   -0.9730   -1.5591 H   0  0  0  0  0  0  0  0  0  0  0  0
   -4.7627   -0.1816    0.0401 H   0  0  0  0  0  0  0  0  0  0  0  0
    1.4197    6.4658   -1.8307 H   0  0  0  0  0  0  0  0  0  0  0  0
    0.8297    6.1233   -3.4560 H   0  0  0  0  0  0  0  0  0  0  0  0
    2.4655    5.6495   -2.9933 H   0  0  0  0  0  0  0  0  0  0  0  0
    1.5148    4.0334   -1.3289 H   0  0  0  0  0  0  0  0  0  0  0  0
   -0.1138    4.5091   -1.8096 H   0  0  0  0  0  0  0  0  0  0  0  0
    0.3921    3.7105   -4.1568 H   0  0  0  0  0  0  0  0  0  0  0  0
    1.9993    3.2423   -3.5993 H   0  0  0  0  0  0  0  0  0  0  0  0
  1 46  1  0  0  0  0
  1 77  1  0  0  0  0
  1 78  1  0  0  0  0
  2 44  1  0  0  0  0
  2 59  1  0  0  0  0
  2 60  1  0  0  0  0
  3  4  2  0  0  0  0
  3 38  1  0  0  0  0
  4  5  1  0  0  0  0
  4 25  1  0  0  0  0
  5  6  2  0  0  0  0
  5  9  1  0  0  0  0
  6  7  1  0  0  0  0
  7  8  2  0  0  0  0
  7 39  1  0  0  0  0
  8  3  1  0  0  0  0
  8 26  1  0  0  0  0
  9 10  1  0  0  0  0
 10 11  2  0  0  0  0
 11 12  1  0  0  0  0
 12  1  1  0  0  0  0
 12  6  1  0  0  0  0
 13 14  2  0  0  0  0
 13 20  1  0  0  0  0
 13  9  1  0  0  0  0
 14 15  1  0  0  0  0
 15  2  1  0  0  0  0
 15 16  1  0  0  0  0
 16 10  1  0  0  0  0
 16 17  2  0  0  0  0
 17 18  1  0  0  0  0
 17 42  1  0  0  0  0
 18 19  2  0  0  0  0
 18 28  1  0  0  0  0
 19 11  1  0  0  0  0
 19 43  1  0  0  0  0
 20 21  2  0  0  0  0
 21 22  1  0  0  0  0
 21 40  1  0  0  0  0
 22 23  2  0  0  0  0
 22 27  1  0  0  0  0
 23 14  1  0  0  0  0
 23 41  1  0  0  0  0
 24 48  1  0  0  0  0
 24 20  1  0  0  0  0
 25 49  1  0  0  0  0
 26 32  2  0  0  0  0
 26 33  1  0  0  0  0
 27 35  2  0  0  0  0
 27 36  1  0  0  0  0
 28 29  2  0  0  0  0
 28 30  1  0  0  0  0
 30 31  1  0  0  0  0
 31 56  1  0  0  0  0
 31 57  1  0  0  0  0
 31 58  1  0  0  0  0
 33 34  1  0  0  0  0
 34 50  1  0  0  0  0
 34 51  1  0  0  0  0
 34 52  1  0  0  0  0
 36 37  1  0  0  0  0
 37 53  1  0  0  0  0
 37 54  1  0  0  0  0
 37 55  1  0  0  0  0
 44 45  1  0  0  0  0
 44 61  1  0  0  0  0
 44 62  1  0  0  0  0
 45 63  1  0  0  0  0
 45 64  1  0  0  0  0
 45 65  1  0  0  0  0
 46 47  1  0  0  0  0
 46 75  1  0  0  0  0
 46 76  1  0  0  0  0
 47 72  1  0  0  0  0
 47 73  1  0  0  0  0
 47 74  1  0  0  0  0
 48 66  1  0  0  0  0
 48 67  1  0  0  0  0
 48 68  1  0  0  0  0
 49 69  1  0  0  0  0
 49 70  1  0  0  0  0
 49 71  1  0  0  0  0
M  END
