 energy: -212.242993267452 gnorm: 0.000609260317 xtb: 6.7.1 (edcfbbe)
          03112513293D

115126  0     0  0            999 V2000
    0.0353    3.6496    2.3582 C   0  0  0  0  0  0  0  0  0  0  0  0
    0.5551    2.4194    1.9573 C   0  0  0  0  0  0  0  0  0  0  0  0
    1.8088    2.3807    1.2679 C   0  0  0  0  0  0  0  0  0  0  0  0
    2.3485    3.6418    0.8341 C   0  0  0  0  0  0  0  0  0  0  0  0
    1.6787    4.8514    1.1035 C   0  0  0  0  0  0  0  0  0  0  0  0
    0.5674    4.8634    1.9095 C   0  0  0  0  0  0  0  0  0  0  0  0
    2.6666    1.2383    1.1234 C   0  0  0  0  0  0  0  0  0  0  0  0
    4.0029    1.5052    0.7475 C   0  0  0  0  0  0  0  0  0  0  0  0
    4.3645    2.7719    0.2005 C   0  0  0  0  0  0  0  0  0  0  0  0
    3.5153    3.7920    0.2026 N   0  0  0  0  0  0  0  0  0  0  0  0
    2.3908   -0.1370    1.4473 C   0  0  0  0  0  0  0  0  0  0  0  0
    3.5250   -0.9228    1.8549 C   0  0  0  0  0  0  0  0  0  0  0  0
    4.7918   -0.5861    1.6213 N   0  0  0  0  0  0  0  0  0  0  0  0
    5.0303    0.5343    0.9415 C   0  0  0  0  0  0  0  0  0  0  0  0
    6.3332    0.7855    0.4795 C   0  0  0  0  0  0  0  0  0  0  0  0
    6.6296    1.9772   -0.1728 C   0  0  0  0  0  0  0  0  0  0  0  0
    5.6633    2.9643   -0.3090 C   0  0  0  0  0  0  0  0  0  0  0  0
    1.1637   -0.8302    1.2906 C   0  0  0  0  0  0  0  0  0  0  0  0
    1.0281   -2.1055    1.8249 C   0  0  0  0  0  0  0  0  0  0  0  0
    2.0791   -2.7428    2.4960 C   0  0  0  0  0  0  0  0  0  0  0  0
    3.3323   -2.1811    2.4608 C   0  0  0  0  0  0  0  0  0  0  0  0
   -0.1505    1.3362    2.2883 O   0  0  0  0  0  0  0  0  0  0  0  0
   -0.0579    6.1821    2.1681 C   0  0  0  0  0  0  0  0  0  0  0  0
    1.9103   -4.0178    3.2287 C   0  0  0  0  0  0  0  0  0  0  0  0
    7.9836    2.2472   -0.7048 C   0  0  0  0  0  0  0  0  0  0  0  0
   -2.3135   -2.4365    2.1131 C   0  0  0  0  0  0  0  0  0  0  0  0
   -2.5144   -1.2380    1.4319 C   0  0  0  0  0  0  0  0  0  0  0  0
   -3.3603   -1.2474    0.2732 C   0  0  0  0  0  0  0  0  0  0  0  0
   -3.6651   -2.5287   -0.3038 C   0  0  0  0  0  0  0  0  0  0  0  0
   -3.2275   -3.7210    0.3074 C   0  0  0  0  0  0  0  0  0  0  0  0
   -2.6653   -3.6729    1.5608 C   0  0  0  0  0  0  0  0  0  0  0  0
   -4.1023   -0.1350   -0.2397 C   0  0  0  0  0  0  0  0  0  0  0  0
   -5.1504   -0.4297   -1.1373 C   0  0  0  0  0  0  0  0  0  0  0  0
   -5.2091   -1.7018   -1.7774 C   0  0  0  0  0  0  0  0  0  0  0  0
   -4.4350   -2.7074   -1.3829 N   0  0  0  0  0  0  0  0  0  0  0  0
   -4.0374    1.2350    0.1825 C   0  0  0  0  0  0  0  0  0  0  0  0
   -5.2713    1.9704    0.1257 C   0  0  0  0  0  0  0  0  0  0  0  0
   -6.3027    1.6182   -0.6377 N   0  0  0  0  0  0  0  0  0  0  0  0
   -6.1895    0.5175   -1.3833 C   0  0  0  0  0  0  0  0  0  0  0  0
   -7.1539    0.2400   -2.3647 C   0  0  0  0  0  0  0  0  0  0  0  0
   -7.1025   -0.9468   -3.0907 C   0  0  0  0  0  0  0  0  0  0  0  0
   -6.1522   -1.9166   -2.8019 C   0  0  0  0  0  0  0  0  0  0  0  0
   -2.8779    1.9578    0.5452 C   0  0  0  0  0  0  0  0  0  0  0  0
   -3.0258    3.1818    1.1742 C   0  0  0  0  0  0  0  0  0  0  0  0
   -4.2896    3.7165    1.4570 C   0  0  0  0  0  0  0  0  0  0  0  0
   -5.3996    3.1703    0.8630 C   0  0  0  0  0  0  0  0  0  0  0  0
   -1.9551   -0.1503    1.9572 O   0  0  0  0  0  0  0  0  0  0  0  0
   -2.4597   -4.9152    2.3330 C   0  0  0  0  0  0  0  0  0  0  0  0
   -4.4276    4.8407    2.4133 C   0  0  0  0  0  0  0  0  0  0  0  0
   -8.1208   -1.1595   -4.1424 C   0  0  0  0  0  0  0  0  0  0  0  0
   -0.8958    0.5980    1.2395 B   0  0  0  0  0  0  0  0  0  0  0  0
    8.3161    3.2585   -1.2758 O   0  0  0  0  0  0  0  0  0  0  0  0
    8.8381    1.2282   -0.4915 O   0  0  0  0  0  0  0  0  0  0  0  0
   10.1541    1.4205   -0.9766 C   0  0  0  0  0  0  0  0  0  0  0  0
    0.6315   -4.2796    3.5265 O   0  0  0  0  0  0  0  0  0  0  0  0
    0.4168   -5.4147    4.3501 C   0  0  0  0  0  0  0  0  0  0  0  0
    2.8222   -4.7338    3.5724 O   0  0  0  0  0  0  0  0  0  0  0  0
   -2.5239   -5.0059    3.5359 O   0  0  0  0  0  0  0  0  0  0  0  0
   -2.2351   -5.9683    1.5267 O   0  0  0  0  0  0  0  0  0  0  0  0
   -2.0801   -7.2381    2.1353 C   0  0  0  0  0  0  0  0  0  0  0  0
   -9.0349   -0.4083   -4.3866 O   0  0  0  0  0  0  0  0  0  0  0  0
   -7.9259   -2.3013   -4.8309 O   0  0  0  0  0  0  0  0  0  0  0  0
   -8.8660   -2.5676   -5.8554 C   0  0  0  0  0  0  0  0  0  0  0  0
   -5.1630    5.7922    2.2994 O   0  0  0  0  0  0  0  0  0  0  0  0
   -3.6475    4.6180    3.4787 O   0  0  0  0  0  0  0  0  0  0  0  0
   -3.7033    5.5320    4.5603 C   0  0  0  0  0  0  0  0  0  0  0  0
    0.5507    7.2157    2.3037 O   0  0  0  0  0  0  0  0  0  0  0  0
   -1.4015    6.1318    2.1518 O   0  0  0  0  0  0  0  0  0  0  0  0
   -2.0546    7.3909    2.2227 C   0  0  0  0  0  0  0  0  0  0  0  0
    0.1245   -0.2869    0.5274 N   0  0  0  0  0  0  0  0  0  0  0  0
    0.8800   -1.2422   -1.6000 C   0  0  0  0  0  0  0  0  0  0  0  0
   -0.2722   -1.0897   -0.6058 C   0  0  0  0  0  0  0  0  0  0  0  0
   -1.6022    1.4813    0.2195 N   0  0  0  0  0  0  0  0  0  0  0  0
   -1.5697    2.3932   -2.0573 C   0  0  0  0  0  0  0  0  0  0  0  0
   -0.8658    2.3140   -0.7008 C   0  0  0  0  0  0  0  0  0  0  0  0
   -2.5780   -7.9661    1.4961 H   0  0  0  0  0  0  0  0  0  0  0  0
   -2.5264   -7.2348    3.1323 H   0  0  0  0  0  0  0  0  0  0  0  0
   -1.0180   -7.4797    2.2132 H   0  0  0  0  0  0  0  0  0  0  0  0
   -0.6554   -5.4612    4.5218 H   0  0  0  0  0  0  0  0  0  0  0  0
    0.9559   -5.3002    5.2933 H   0  0  0  0  0  0  0  0  0  0  0  0
    0.7774   -6.3187    3.8527 H   0  0  0  0  0  0  0  0  0  0  0  0
   10.7046    0.5146   -0.7338 H   0  0  0  0  0  0  0  0  0  0  0  0
   10.6138    2.2888   -0.4983 H   0  0  0  0  0  0  0  0  0  0  0  0
   10.1421    1.5846   -2.0570 H   0  0  0  0  0  0  0  0  0  0  0  0
    0.5408   -1.7897   -2.4762 H   0  0  0  0  0  0  0  0  0  0  0  0
    1.7076   -1.7838   -1.1466 H   0  0  0  0  0  0  0  0  0  0  0  0
    1.2385   -0.2638   -1.9119 H   0  0  0  0  0  0  0  0  0  0  0  0
   -0.6227   -2.0915   -0.3127 H   0  0  0  0  0  0  0  0  0  0  0  0
   -1.1059   -0.5706   -1.0817 H   0  0  0  0  0  0  0  0  0  0  0  0
   -0.9667    2.9733   -2.7517 H   0  0  0  0  0  0  0  0  0  0  0  0
   -2.5428    2.8693   -1.9551 H   0  0  0  0  0  0  0  0  0  0  0  0
   -1.7158    1.3958   -2.4660 H   0  0  0  0  0  0  0  0  0  0  0  0
   -0.7273    3.3361   -0.3172 H   0  0  0  0  0  0  0  0  0  0  0  0
    0.1201    1.8612   -0.8198 H   0  0  0  0  0  0  0  0  0  0  0  0
   -2.6935    5.8920    4.7558 H   0  0  0  0  0  0  0  0  0  0  0  0
   -4.0802    5.0033    5.4376 H   0  0  0  0  0  0  0  0  0  0  0  0
   -4.3653    6.3653    4.3147 H   0  0  0  0  0  0  0  0  0  0  0  0
   -8.5115   -3.4561   -6.3728 H   0  0  0  0  0  0  0  0  0  0  0  0
   -8.9303   -1.7210   -6.5432 H   0  0  0  0  0  0  0  0  0  0  0  0
   -9.8562   -2.7439   -5.4275 H   0  0  0  0  0  0  0  0  0  0  0  0
   -3.1155    7.2036    2.0811 H   0  0  0  0  0  0  0  0  0  0  0  0
   -1.6778    8.0498    1.4371 H   0  0  0  0  0  0  0  0  0  0  0  0
   -1.8686    7.8650    3.1893 H   0  0  0  0  0  0  0  0  0  0  0  0
   -7.9358    0.9571   -2.5544 H   0  0  0  0  0  0  0  0  0  0  0  0
   -6.1447   -2.8619   -3.3177 H   0  0  0  0  0  0  0  0  0  0  0  0
   -6.3695    3.6353    0.9305 H   0  0  0  0  0  0  0  0  0  0  0  0
   -3.4722   -4.6532   -0.1732 H   0  0  0  0  0  0  0  0  0  0  0  0
    4.1895   -2.7046    2.8520 H   0  0  0  0  0  0  0  0  0  0  0  0
    7.0877    0.0343    0.6405 H   0  0  0  0  0  0  0  0  0  0  0  0
    5.9082    3.9068   -0.7712 H   0  0  0  0  0  0  0  0  0  0  0  0
    2.1056    5.7643    0.7218 H   0  0  0  0  0  0  0  0  0  0  0  0
   -0.8230    3.6351    3.0124 H   0  0  0  0  0  0  0  0  0  0  0  0
   -1.8186   -2.4004    3.0716 H   0  0  0  0  0  0  0  0  0  0  0  0
    0.0779   -2.6075    1.7437 H   0  0  0  0  0  0  0  0  0  0  0  0
   -2.1513    3.7284    1.4781 H   0  0  0  0  0  0  0  0  0  0  0  0
  1  2  2  0  0  0  0
  1112  1  0  0  0  0
  2  3  1  0  0  0  0
  3  4  2  0  0  0  0
  3  7  1  0  0  0  0
  4  5  1  0  0  0  0
  5  6  2  0  0  0  0
  5111  1  0  0  0  0
  6  1  1  0  0  0  0
  6 23  1  0  0  0  0
  7  8  1  0  0  0  0
  7 11  2  0  0  0  0
  8  9  1  0  0  0  0
  9 10  2  0  0  0  0
 10  4  1  0  0  0  0
 11 12  1  0  0  0  0
 11 18  1  0  0  0  0
 12 13  2  0  0  0  0
 13 14  1  0  0  0  0
 14  8  1  0  0  0  0
 14 15  2  0  0  0  0
 15 16  1  0  0  0  0
 15109  1  0  0  0  0
 16 17  2  0  0  0  0
 16 25  1  0  0  0  0
 17  9  1  0  0  0  0
 17110  1  0  0  0  0
 18 70  1  0  0  0  0
 18 19  2  0  0  0  0
 19 20  1  0  0  0  0
 19114  1  0  0  0  0
 20 21  2  0  0  0  0
 20 24  1  0  0  0  0
 21 12  1  0  0  0  0
 21108  1  0  0  0  0
 22  2  1  0  0  0  0
 23 67  2  0  0  0  0
 23 68  1  0  0  0  0
 24 55  1  0  0  0  0
 24 57  2  0  0  0  0
 25 52  2  0  0  0  0
 25 53  1  0  0  0  0
 26 27  2  0  0  0  0
 26113  1  0  0  0  0
 27 28  1  0  0  0  0
 27 47  1  0  0  0  0
 28 29  2  0  0  0  0
 28 32  1  0  0  0  0
 29 30  1  0  0  0  0
 30 31  2  0  0  0  0
 30107  1  0  0  0  0
 31 26  1  0  0  0  0
 31 48  1  0  0  0  0
 32 36  2  0  0  0  0
 33 32  1  0  0  0  0
 33 34  1  0  0  0  0
 34 35  2  0  0  0  0
 35 29  1  0  0  0  0
 36 37  1  0  0  0  0
 36 43  1  0  0  0  0
 37 38  2  0  0  0  0
 38 39  1  0  0  0  0
 39 33  1  0  0  0  0
 39 40  2  0  0  0  0
 40 41  1  0  0  0  0
 40104  1  0  0  0  0
 41 42  2  0  0  0  0
 41 50  1  0  0  0  0
 42 34  1  0  0  0  0
 42105  1  0  0  0  0
 43 73  1  0  0  0  0
 43 44  2  0  0  0  0
 44 45  1  0  0  0  0
 44115  1  0  0  0  0
 45 46  2  0  0  0  0
 45 49  1  0  0  0  0
 46 37  1  0  0  0  0
 46106  1  0  0  0  0
 48 58  2  0  0  0  0
 48 59  1  0  0  0  0
 49 64  2  0  0  0  0
 49 65  1  0  0  0  0
 50 61  2  0  0  0  0
 50 62  1  0  0  0  0
 51 70  1  0  0  0  0
 51 73  1  0  0  0  0
 51 22  1  0  0  0  0
 51 47  1  0  0  0  0
 53 54  1  0  0  0  0
 54 82  1  0  0  0  0
 54 83  1  0  0  0  0
 54 84  1  0  0  0  0
 55 56  1  0  0  0  0
 56 79  1  0  0  0  0
 56 80  1  0  0  0  0
 56 81  1  0  0  0  0
 59 60  1  0  0  0  0
 60 76  1  0  0  0  0
 60 77  1  0  0  0  0
 60 78  1  0  0  0  0
 62 63  1  0  0  0  0
 63 98  1  0  0  0  0
 63 99  1  0  0  0  0
 63100  1  0  0  0  0
 65 66  1  0  0  0  0
 66 95  1  0  0  0  0
 66 96  1  0  0  0  0
 66 97  1  0  0  0  0
 68 69  1  0  0  0  0
 69101  1  0  0  0  0
 69102  1  0  0  0  0
 69103  1  0  0  0  0
 70 72  1  0  0  0  0
 71 72  1  0  0  0  0
 71 85  1  0  0  0  0
 71 86  1  0  0  0  0
 71 87  1  0  0  0  0
 72 88  1  0  0  0  0
 72 89  1  0  0  0  0
 73 75  1  0  0  0  0
 74 75  1  0  0  0  0
 74 90  1  0  0  0  0
 74 91  1  0  0  0  0
 74 92  1  0  0  0  0
 75 93  1  0  0  0  0
 75 94  1  0  0  0  0
M  CHG  1   1  -1
M  END
