energy: -211.933083494214 gnorm: 0.000836624891 xtb: 6.7.1 (edcfbbe)_energy: -211.933083494214 gnorm: 0.000836624891 xtb: 6.7.1 (edcfbbe)
 OpenBabel03112513333D

230252  0  0  0  0  0  0  0  0999 V2000
   -0.2646    3.2795    2.6390 C   0  0  0  0  0  0  0  0  0  0  0  0
    0.3723    2.1573    2.1163 C   0  0  0  0  0  0  0  0  0  0  0  0
    1.6359    2.2944    1.4729 C   0  0  0  0  0  0  0  0  0  0  0  0
    2.0564    3.6408    1.1797 C   0  0  0  0  0  0  0  0  0  0  0  0
    1.2934    4.7565    1.5924 C   0  0  0  0  0  0  0  0  0  0  0  0
    0.1896    4.5792    2.3897 C   0  0  0  0  0  0  0  0  0  0  0  0
    2.5838    1.2395    1.2459 C   0  0  0  0  0  0  0  0  0  0  0  0
    3.8822    1.6646    0.8784 C   0  0  1  0  0  0  0  0  0  0  0  0
    4.1180    3.0010    0.4374 C   0  0  0  0  0  0  0  0  0  0  0  0
    3.1972    3.9466    0.5637 N   0  0  0  0  0  0  0  0  0  0  0  0
    2.4506   -0.1762    1.5007 C   0  0  0  0  0  0  0  0  0  0  0  0
    3.6737   -0.8448    1.8776 C   0  0  0  0  0  0  0  0  0  0  0  0
    4.8882   -0.3712    1.6249 N   0  0  0  0  0  0  0  0  0  0  0  0
    5.0033    0.7927    0.9935 C   0  0  0  0  0  0  0  0  0  0  0  0
    6.2684    1.1934    0.5246 C   0  0  0  0  0  0  0  0  0  0  0  0
    6.4357    2.4463   -0.0506 C   0  0  0  0  0  0  0  0  0  0  0  0
    5.3806    3.3470   -0.0860 C   0  0  0  0  0  0  0  0  0  0  0  0
    1.3242   -1.0270    1.3149 C   0  0  0  0  0  0  0  0  0  0  0  0
    1.3653   -2.3291    1.8088 C   0  0  0  0  0  0  0  0  0  0  0  0
    2.4856   -2.8609    2.4531 C   0  0  0  0  0  0  0  0  0  0  0  0
    3.6520   -2.1390    2.4461 C   0  0  0  0  0  0  0  0  0  0  0  0
   -0.2297    0.9865    2.2888 O   0  0  0  0  0  0  0  0  0  0  0  0
   -0.5668    5.7298    2.9565 C   0  0  0  0  0  0  0  0  0  0  0  0
    2.4677   -4.2100    3.0823 C   0  0  0  0  0  0  0  0  0  0  0  0
    7.7491    2.8841   -0.6012 C   0  0  0  0  0  0  0  0  0  0  0  0
   -2.2153   -2.7706    1.8725 C   0  0  0  0  0  0  0  0  0  0  0  0
   -2.5190   -1.5324    1.3116 C   0  0  0  0  0  0  0  0  0  0  0  0
   -3.4769   -1.4528    0.2594 C   0  0  0  0  0  0  0  0  0  0  0  0
   -3.9198   -2.7006   -0.3036 C   0  0  0  0  0  0  0  0  0  0  0  0
   -3.4322   -3.9366    0.1754 C   0  0  0  0  0  0  0  0  0  0  0  0
   -2.6573   -3.9724    1.3087 C   0  0  0  0  0  0  0  0  0  0  0  0
   -4.1746   -0.2639   -0.1404 C   0  0  0  0  0  0  0  0  0  0  0  0
   -5.3639   -0.4823   -0.8741 C   0  0  1  0  0  0  0  0  0  0  0  0
   -5.6257   -1.7467   -1.4808 C   0  0  0  0  0  0  0  0  0  0  0  0
   -4.8671   -2.8071   -1.2355 N   0  0  0  0  0  0  0  0  0  0  0  0
   -3.9054    1.1164    0.1883 C   0  0  0  0  0  0  0  0  0  0  0  0
   -5.0639    1.9749    0.2261 C   0  0  0  0  0  0  0  0  0  0  0  0
   -6.2411    1.6727   -0.3096 N   0  0  0  0  0  0  0  0  0  0  0  0
   -6.3538    0.5361   -0.9913 C   0  0  0  0  0  0  0  0  0  0  0  0
   -7.4951    0.3223   -1.7832 C   0  0  0  0  0  0  0  0  0  0  0  0
   -7.6620   -0.8721   -2.4745 C   0  0  0  0  0  0  0  0  0  0  0  0
   -6.7444   -1.9005   -2.3271 C   0  0  0  0  0  0  0  0  0  0  0  0
   -2.6451    1.7634    0.3013 C   0  0  0  0  0  0  0  0  0  0  0  0
   -2.6100    3.1268    0.5927 C   0  0  0  0  0  0  0  0  0  0  0  0
   -3.7505    3.8660    0.9109 C   0  0  0  0  0  0  0  0  0  0  0  0
   -4.9830    3.2947    0.7336 C   0  0  0  0  0  0  0  0  0  0  0  0
   -1.9429   -0.4631    1.8474 O   0  0  0  0  0  0  0  0  0  0  0  0
   -2.2991   -5.2550    1.9651 C   0  0  0  0  0  0  0  0  0  0  0  0
   -3.5787    5.2701    1.3753 C   0  0  0  0  0  0  0  0  0  0  0  0
   -8.8653   -1.0144   -3.3407 C   0  0  0  0  0  0  0  0  0  0  0  0
   -0.8507    0.2508    1.1912 B   0  0  2  0  0  0  0  0  0  0  0  0
    7.9475    3.9643   -1.0972 O   0  0  0  0  0  0  0  0  0  0  0  0
    8.6888    1.9390   -0.4881 O   0  0  0  0  0  0  0  0  0  0  0  0
    9.9737    2.2796   -0.9882 C   0  0  0  0  0  0  0  0  0  0  0  0
    1.2568   -4.7672    3.0411 O   0  0  0  0  0  0  0  0  0  0  0  0
    1.1119   -6.0252    3.6870 C   0  0  0  0  0  0  0  0  0  0  0  0
    3.4335   -4.7289    3.5843 O   0  0  0  0  0  0  0  0  0  0  0  0
   -1.9086   -5.3565    3.1019 O   0  0  0  0  0  0  0  0  0  0  0  0
   -2.4811   -6.3039    1.1530 O   0  0  0  0  0  0  0  0  0  0  0  0
   -2.2040   -7.5833    1.7026 C   0  0  0  0  0  0  0  0  0  0  0  0
   -9.7026   -0.1588   -3.4795 O   0  0  0  0  0  0  0  0  0  0  0  0
   -8.9123   -2.2000   -3.9590 O   0  0  0  0  0  0  0  0  0  0  0  0
  -10.0305   -2.4121   -4.8086 C   0  0  0  0  0  0  0  0  0  0  0  0
   -2.6423    5.9719    1.0801 O   0  0  0  0  0  0  0  0  0  0  0  0
   -4.5862    5.6452    2.1580 O   0  0  0  0  0  0  0  0  0  0  0  0
   -4.4772    6.9278    2.7602 C   0  0  0  0  0  0  0  0  0  0  0  0
   -1.5151    5.6202    3.6960 O   0  0  0  0  0  0  0  0  0  0  0  0
   -0.0482    6.8950    2.5735 O   0  0  0  0  0  0  0  0  0  0  0  0
   -0.7278    8.0690    2.9882 C   0  0  0  0  0  0  0  0  0  0  0  0
    0.2182   -0.6473    0.5648 N   0  0  0  0  0  0  0  0  0  0  0  0
    0.9938   -1.7640   -1.4913 C   0  0  0  0  0  0  0  0  0  0  0  0
   -0.1547   -1.5459   -0.5063 C   0  0  0  0  0  0  0  0  0  0  0  0
   -1.4434    1.1118    0.0571 N   0  0  0  0  0  0  0  0  0  0  0  0
   -1.1710    1.9245   -2.2413 C   0  0  0  0  0  0  0  0  0  0  0  0
   -0.5391    1.7747   -0.8587 C   0  0  0  0  0  0  0  0  0  0  0  0
   -2.6438   -8.3092    1.0233 H   0  0  0  0  0  0  0  0  0  0  0  0
   -2.6423   -7.6722    2.6988 H   0  0  0  0  0  0  0  0  0  0  0  0
   -1.1253   -7.7383    1.7749 H   0  0  0  0  0  0  0  0  0  0  0  0
    0.0441   -6.1504    3.8501 H   0  0  0  0  0  0  0  0  0  0  0  0
    1.6559   -6.0273    4.6331 H   0  0  0  0  0  0  0  0  0  0  0  0
    1.5086   -6.8198    3.0506 H   0  0  0  0  0  0  0  0  0  0  0  0
   10.6096    1.4179   -0.8035 H   0  0  0  0  0  0  0  0  0  0  0  0
   10.3598    3.1610   -0.4722 H   0  0  0  0  0  0  0  0  0  0  0  0
    9.9194    2.4958   -2.0572 H   0  0  0  0  0  0  0  0  0  0  0  0
    0.6523   -2.3877   -2.3132 H   0  0  0  0  0  0  0  0  0  0  0  0
    1.8329   -2.2569   -1.0056 H   0  0  0  0  0  0  0  0  0  0  0  0
    1.3369   -0.8139   -1.8942 H   0  0  0  0  0  0  0  0  0  0  0  0
   -0.4921   -2.5235   -0.1353 H   0  0  0  0  0  0  0  0  0  0  0  0
   -0.9986   -1.0792   -1.0184 H   0  0  0  0  0  0  0  0  0  0  0  0
   -0.4460    2.3482   -2.9312 H   0  0  0  0  0  0  0  0  0  0  0  0
   -2.0366    2.5817   -2.2000 H   0  0  0  0  0  0  0  0  0  0  0  0
   -1.4895    0.9550   -2.6179 H   0  0  0  0  0  0  0  0  0  0  0  0
   -0.2211    2.7646   -0.5032 H   0  0  0  0  0  0  0  0  0  0  0  0
    0.3531    1.1490   -0.9192 H   0  0  0  0  0  0  0  0  0  0  0  0
   -3.6441    6.9256    3.4659 H   0  0  0  0  0  0  0  0  0  0  0  0
   -5.4170    7.1008    3.2780 H   0  0  0  0  0  0  0  0  0  0  0  0
   -4.3102    7.6933    1.9990 H   0  0  0  0  0  0  0  0  0  0  0  0
   -9.8542   -3.3581   -5.3137 H   0  0  0  0  0  0  0  0  0  0  0  0
  -10.1176   -1.5981   -5.5311 H   0  0  0  0  0  0  0  0  0  0  0  0
  -10.9493   -2.4576   -4.2202 H   0  0  0  0  0  0  0  0  0  0  0  0
   -1.5996    8.2250    2.3505 H   0  0  0  0  0  0  0  0  0  0  0  0
   -0.0233    8.8893    2.8735 H   0  0  0  0  0  0  0  0  0  0  0  0
   -1.0480    7.9782    4.0285 H   0  0  0  0  0  0  0  0  0  0  0  0
   -8.2367    1.1015   -1.8591 H   0  0  0  0  0  0  0  0  0  0  0  0
   -6.8808   -2.8472   -2.8231 H   0  0  0  0  0  0  0  0  0  0  0  0
   -5.9003    3.8457    0.8555 H   0  0  0  0  0  0  0  0  0  0  0  0
   -3.7826   -4.8340   -0.3056 H   0  0  0  0  0  0  0  0  0  0  0  0
    4.5759   -2.5587    2.8098 H   0  0  0  0  0  0  0  0  0  0  0  0
    7.0940    0.5089    0.6265 H   0  0  0  0  0  0  0  0  0  0  0  0
    5.5270    4.3388   -0.4838 H   0  0  0  0  0  0  0  0  0  0  0  0
    1.6543    5.7353    1.3266 H   0  0  0  0  0  0  0  0  0  0  0  0
   -1.1649    3.1310    3.2159 H   0  0  0  0  0  0  0  0  0  0  0  0
   -1.5937   -2.7917    2.7549 H   0  0  0  0  0  0  0  0  0  0  0  0
    0.4843   -2.9435    1.7210 H   0  0  0  0  0  0  0  0  0  0  0  0
   -1.6634    3.6387    0.6460 H   0  0  0  0  0  0  0  0  0  0  0  0
   -0.2646    3.2795   12.6390 C   0  0  0  0  0  0  0  0  0  0  0  0
    0.3723    2.1573   12.1163 C   0  0  0  0  0  0  0  0  0  0  0  0
    1.6359    2.2944   11.4729 C   0  0  0  0  0  0  0  0  0  0  0  0
    2.0564    3.6408   11.1797 C   0  0  0  0  0  0  0  0  0  0  0  0
    1.2934    4.7565   11.5924 C   0  0  0  0  0  0  0  0  0  0  0  0
    0.1896    4.5792   12.3897 C   0  0  0  0  0  0  0  0  0  0  0  0
    2.5838    1.2395   11.2459 C   0  0  0  0  0  0  0  0  0  0  0  0
    3.8822    1.6646   10.8784 C   0  0  1  0  0  0  0  0  0  0  0  0
    4.1180    3.0010   10.4374 C   0  0  0  0  0  0  0  0  0  0  0  0
    3.1972    3.9466   10.5637 N   0  0  0  0  0  0  0  0  0  0  0  0
    2.4506   -0.1762   11.5007 C   0  0  0  0  0  0  0  0  0  0  0  0
    3.6737   -0.8448   11.8776 C   0  0  0  0  0  0  0  0  0  0  0  0
    4.8882   -0.3712   11.6249 N   0  0  0  0  0  0  0  0  0  0  0  0
    5.0033    0.7927   10.9935 C   0  0  0  0  0  0  0  0  0  0  0  0
    6.2684    1.1934   10.5246 C   0  0  0  0  0  0  0  0  0  0  0  0
    6.4357    2.4463    9.9494 C   0  0  0  0  0  0  0  0  0  0  0  0
    5.3806    3.3470    9.9140 C   0  0  0  0  0  0  0  0  0  0  0  0
    1.3242   -1.0270   11.3149 C   0  0  0  0  0  0  0  0  0  0  0  0
    1.3653   -2.3291   11.8088 C   0  0  0  0  0  0  0  0  0  0  0  0
    2.4856   -2.8609   12.4531 C   0  0  0  0  0  0  0  0  0  0  0  0
    3.6520   -2.1390   12.4461 C   0  0  0  0  0  0  0  0  0  0  0  0
   -0.2297    0.9865   12.2888 O   0  0  0  0  0  0  0  0  0  0  0  0
   -0.5668    5.7298   12.9565 C   0  0  0  0  0  0  0  0  0  0  0  0
    2.4677   -4.2100   13.0823 C   0  0  0  0  0  0  0  0  0  0  0  0
    7.7491    2.8841    9.3988 C   0  0  0  0  0  0  0  0  0  0  0  0
   -2.2153   -2.7706   11.8725 C   0  0  0  0  0  0  0  0  0  0  0  0
   -2.5190   -1.5324   11.3116 C   0  0  0  0  0  0  0  0  0  0  0  0
   -3.4769   -1.4528   10.2594 C   0  0  0  0  0  0  0  0  0  0  0  0
   -3.9198   -2.7006    9.6964 C   0  0  0  0  0  0  0  0  0  0  0  0
   -3.4322   -3.9366   10.1754 C   0  0  0  0  0  0  0  0  0  0  0  0
   -2.6573   -3.9724   11.3087 C   0  0  0  0  0  0  0  0  0  0  0  0
   -4.1746   -0.2639    9.8596 C   0  0  0  0  0  0  0  0  0  0  0  0
   -5.3639   -0.4823    9.1259 C   0  0  1  0  0  0  0  0  0  0  0  0
   -5.6257   -1.7467    8.5192 C   0  0  0  0  0  0  0  0  0  0  0  0
   -4.8671   -2.8071    8.7645 N   0  0  0  0  0  0  0  0  0  0  0  0
   -3.9054    1.1164   10.1883 C   0  0  0  0  0  0  0  0  0  0  0  0
   -5.0639    1.9749   10.2261 C   0  0  0  0  0  0  0  0  0  0  0  0
   -6.2411    1.6727    9.6904 N   0  0  0  0  0  0  0  0  0  0  0  0
   -6.3538    0.5361    9.0087 C   0  0  0  0  0  0  0  0  0  0  0  0
   -7.4951    0.3223    8.2168 C   0  0  0  0  0  0  0  0  0  0  0  0
   -7.6620   -0.8721    7.5255 C   0  0  0  0  0  0  0  0  0  0  0  0
   -6.7444   -1.9005    7.6729 C   0  0  0  0  0  0  0  0  0  0  0  0
   -2.6451    1.7634   10.3013 C   0  0  0  0  0  0  0  0  0  0  0  0
   -2.6100    3.1268   10.5927 C   0  0  0  0  0  0  0  0  0  0  0  0
   -3.7505    3.8660   10.9109 C   0  0  0  0  0  0  0  0  0  0  0  0
   -4.9830    3.2947   10.7336 C   0  0  0  0  0  0  0  0  0  0  0  0
   -1.9429   -0.4631   11.8474 O   0  0  0  0  0  0  0  0  0  0  0  0
   -2.2991   -5.2550   11.9651 C   0  0  0  0  0  0  0  0  0  0  0  0
   -3.5787    5.2701   11.3753 C   0  0  0  0  0  0  0  0  0  0  0  0
   -8.8653   -1.0144    6.6593 C   0  0  0  0  0  0  0  0  0  0  0  0
   -0.8507    0.2508   11.1912 B   0  0  2  0  0  0  0  0  0  0  0  0
    7.9475    3.9643    8.9028 O   0  0  0  0  0  0  0  0  0  0  0  0
    8.6888    1.9390    9.5119 O   0  0  0  0  0  0  0  0  0  0  0  0
    9.9737    2.2796    9.0118 C   0  0  0  0  0  0  0  0  0  0  0  0
    1.2568   -4.7672   13.0411 O   0  0  0  0  0  0  0  0  0  0  0  0
    1.1119   -6.0252   13.6870 C   0  0  0  0  0  0  0  0  0  0  0  0
    3.4335   -4.7289   13.5843 O   0  0  0  0  0  0  0  0  0  0  0  0
   -1.9086   -5.3565   13.1019 O   0  0  0  0  0  0  0  0  0  0  0  0
   -2.4811   -6.3039   11.1530 O   0  0  0  0  0  0  0  0  0  0  0  0
   -2.2040   -7.5833   11.7026 C   0  0  0  0  0  0  0  0  0  0  0  0
   -9.7026   -0.1588    6.5205 O   0  0  0  0  0  0  0  0  0  0  0  0
   -8.9123   -2.2000    6.0410 O   0  0  0  0  0  0  0  0  0  0  0  0
  -10.0305   -2.4121    5.1914 C   0  0  0  0  0  0  0  0  0  0  0  0
   -2.6423    5.9719   11.0801 O   0  0  0  0  0  0  0  0  0  0  0  0
   -4.5862    5.6452   12.1580 O   0  0  0  0  0  0  0  0  0  0  0  0
   -4.4772    6.9278   12.7602 C   0  0  0  0  0  0  0  0  0  0  0  0
   -1.5151    5.6202   13.6960 O   0  0  0  0  0  0  0  0  0  0  0  0
   -0.0482    6.8950   12.5735 O   0  0  0  0  0  0  0  0  0  0  0  0
   -0.7278    8.0690   12.9882 C   0  0  0  0  0  0  0  0  0  0  0  0
    0.2182   -0.6473   10.5648 N   0  0  0  0  0  0  0  0  0  0  0  0
    0.9938   -1.7640    8.5087 C   0  0  0  0  0  0  0  0  0  0  0  0
   -0.1547   -1.5459    9.4937 C   0  0  0  0  0  0  0  0  0  0  0  0
   -1.4434    1.1118   10.0571 N   0  0  0  0  0  0  0  0  0  0  0  0
   -1.1710    1.9245    7.7587 C   0  0  0  0  0  0  0  0  0  0  0  0
   -0.5391    1.7747    9.1413 C   0  0  0  0  0  0  0  0  0  0  0  0
   -2.6438   -8.3092   11.0233 H   0  0  0  0  0  0  0  0  0  0  0  0
   -2.6423   -7.6722   12.6988 H   0  0  0  0  0  0  0  0  0  0  0  0
   -1.1253   -7.7383   11.7749 H   0  0  0  0  0  0  0  0  0  0  0  0
    0.0441   -6.1504   13.8501 H   0  0  0  0  0  0  0  0  0  0  0  0
    1.6559   -6.0273   14.6331 H   0  0  0  0  0  0  0  0  0  0  0  0
    1.5086   -6.8198   13.0506 H   0  0  0  0  0  0  0  0  0  0  0  0
   10.6096    1.4179    9.1965 H   0  0  0  0  0  0  0  0  0  0  0  0
   10.3598    3.1610    9.5278 H   0  0  0  0  0  0  0  0  0  0  0  0
    9.9194    2.4958    7.9428 H   0  0  0  0  0  0  0  0  0  0  0  0
    0.6523   -2.3877    7.6868 H   0  0  0  0  0  0  0  0  0  0  0  0
    1.8329   -2.2569    8.9944 H   0  0  0  0  0  0  0  0  0  0  0  0
    1.3369   -0.8139    8.1058 H   0  0  0  0  0  0  0  0  0  0  0  0
   -0.4921   -2.5235    9.8647 H   0  0  0  0  0  0  0  0  0  0  0  0
   -0.9986   -1.0792    8.9816 H   0  0  0  0  0  0  0  0  0  0  0  0
   -0.4460    2.3482    7.0688 H   0  0  0  0  0  0  0  0  0  0  0  0
   -2.0366    2.5817    7.8000 H   0  0  0  0  0  0  0  0  0  0  0  0
   -1.4895    0.9550    7.3821 H   0  0  0  0  0  0  0  0  0  0  0  0
   -0.2211    2.7646    9.4968 H   0  0  0  0  0  0  0  0  0  0  0  0
    0.3531    1.1490    9.0808 H   0  0  0  0  0  0  0  0  0  0  0  0
   -3.6441    6.9256   13.4659 H   0  0  0  0  0  0  0  0  0  0  0  0
   -5.4170    7.1008   13.2780 H   0  0  0  0  0  0  0  0  0  0  0  0
   -4.3102    7.6933   11.9990 H   0  0  0  0  0  0  0  0  0  0  0  0
   -9.8542   -3.3581    4.6863 H   0  0  0  0  0  0  0  0  0  0  0  0
  -10.1176   -1.5981    4.4689 H   0  0  0  0  0  0  0  0  0  0  0  0
  -10.9493   -2.4576    5.7798 H   0  0  0  0  0  0  0  0  0  0  0  0
   -1.5996    8.2250   12.3505 H   0  0  0  0  0  0  0  0  0  0  0  0
   -0.0233    8.8893   12.8735 H   0  0  0  0  0  0  0  0  0  0  0  0
   -1.0480    7.9782   14.0285 H   0  0  0  0  0  0  0  0  0  0  0  0
   -8.2367    1.1015    8.1409 H   0  0  0  0  0  0  0  0  0  0  0  0
   -6.8808   -2.8472    7.1769 H   0  0  0  0  0  0  0  0  0  0  0  0
   -5.9003    3.8457   10.8555 H   0  0  0  0  0  0  0  0  0  0  0  0
   -3.7826   -4.8340    9.6944 H   0  0  0  0  0  0  0  0  0  0  0  0
    4.5759   -2.5587   12.8098 H   0  0  0  0  0  0  0  0  0  0  0  0
    7.0940    0.5089   10.6265 H   0  0  0  0  0  0  0  0  0  0  0  0
    5.5270    4.3388    9.5162 H   0  0  0  0  0  0  0  0  0  0  0  0
    1.6543    5.7353   11.3266 H   0  0  0  0  0  0  0  0  0  0  0  0
   -1.1649    3.1310   13.2159 H   0  0  0  0  0  0  0  0  0  0  0  0
   -1.5937   -2.7917   12.7549 H   0  0  0  0  0  0  0  0  0  0  0  0
    0.4843   -2.9435   11.7210 H   0  0  0  0  0  0  0  0  0  0  0  0
   -1.6634    3.6387   10.6460 H   0  0  0  0  0  0  0  0  0  0  0  0
  1  2  2  0  0  0  0
  1112  1  0  0  0  0
  2  3  1  0  0  0  0
  3  4  2  0  0  0  0
  3  7  1  0  0  0  0
  4  5  1  0  0  0  0
  5  6  2  0  0  0  0
  5111  1  0  0  0  0
  6  1  1  0  0  0  0
  6 23  1  0  0  0  0
  7 11  2  0  0  0  0
  8  7  1  1  0  0  0
  8  9  1  0  0  0  0
  9 10  2  0  0  0  0
 10  4  1  0  0  0  0
 11 12  1  0  0  0  0
 11 18  1  0  0  0  0
 12 13  2  0  0  0  0
 13 14  1  0  0  0  0
 14  8  1  0  0  0  0
 14 15  2  0  0  0  0
 15 16  1  0  0  0  0
 15109  1  0  0  0  0
 16 17  2  0  0  0  0
 16 25  1  0  0  0  0
 17  9  1  0  0  0  0
 17110  1  0  0  0  0
 18 70  1  0  0  0  0
 18 19  2  0  0  0  0
 19 20  1  0  0  0  0
 19114  1  0  0  0  0
 20 21  2  0  0  0  0
 20 24  1  0  0  0  0
 21 12  1  0  0  0  0
 21108  1  0  0  0  0
 22  2  1  0  0  0  0
 23 67  2  0  0  0  0
 23 68  1  0  0  0  0
 24 55  1  0  0  0  0
 24 57  2  0  0  0  0
 25 52  2  0  0  0  0
 25 53  1  0  0  0  0
 26 27  2  0  0  0  0
 26113  1  0  0  0  0
 27 28  1  0  0  0  0
 27 47  1  0  0  0  0
 28 29  2  0  0  0  0
 28 32  1  0  0  0  0
 29 30  1  0  0  0  0
 30 31  2  0  0  0  0
 30107  1  0  0  0  0
 31 26  1  0  0  0  0
 31 48  1  0  0  0  0
 32 36  2  0  0  0  0
 33 32  1  1  0  0  0
 33 34  1  0  0  0  0
 34 35  2  0  0  0  0
 35 29  1  0  0  0  0
 36 37  1  0  0  0  0
 36 43  1  0  0  0  0
 37 38  2  0  0  0  0
 38 39  1  0  0  0  0
 39 33  1  0  0  0  0
 39 40  2  0  0  0  0
 40 41  1  0  0  0  0
 40104  1  0  0  0  0
 41 42  2  0  0  0  0
 41 50  1  0  0  0  0
 42 34  1  0  0  0  0
 42105  1  0  0  0  0
 43 73  1  0  0  0  0
 43 44  2  0  0  0  0
 44 45  1  0  0  0  0
 44115  1  0  0  0  0
 45 46  2  0  0  0  0
 45 49  1  0  0  0  0
 46 37  1  0  0  0  0
 46106  1  0  0  0  0
 48 58  2  0  0  0  0
 48 59  1  0  0  0  0
 49 64  2  0  0  0  0
 49 65  1  0  0  0  0
 50 61  2  0  0  0  0
 50 62  1  0  0  0  0
 51 70  1  0  0  0  0
 51 73  1  0  0  0  0
 51 22  1  1  0  0  0
 51 47  1  0  0  0  0
 53 54  1  0  0  0  0
 54 82  1  0  0  0  0
 54 83  1  0  0  0  0
 54 84  1  0  0  0  0
 55 56  1  0  0  0  0
 56 79  1  0  0  0  0
 56 80  1  0  0  0  0
 56 81  1  0  0  0  0
 59 60  1  0  0  0  0
 60 76  1  0  0  0  0
 60 77  1  0  0  0  0
 60 78  1  0  0  0  0
 62 63  1  0  0  0  0
 63 98  1  0  0  0  0
 63 99  1  0  0  0  0
 63100  1  0  0  0  0
 65 66  1  0  0  0  0
 66 95  1  0  0  0  0
 66 96  1  0  0  0  0
 66 97  1  0  0  0  0
 68 69  1  0  0  0  0
 69101  1  0  0  0  0
 69102  1  0  0  0  0
 69103  1  0  0  0  0
 70 72  1  0  0  0  0
 71 72  1  0  0  0  0
 71 85  1  0  0  0  0
 71 86  1  0  0  0  0
 71 87  1  0  0  0  0
 72 88  1  0  0  0  0
 72 89  1  0  0  0  0
 73 75  1  0  0  0  0
 74 75  1  0  0  0  0
 74 90  1  0  0  0  0
 74 91  1  0  0  0  0
 74 92  1  0  0  0  0
 75 93  1  0  0  0  0
 75 94  1  0  0  0  0
116117  2  0  0  0  0
116227  1  0  0  0  0
117118  1  0  0  0  0
118119  2  0  0  0  0
118122  1  0  0  0  0
119120  1  0  0  0  0
120121  2  0  0  0  0
120226  1  0  0  0  0
121116  1  0  0  0  0
121138  1  0  0  0  0
122126  2  0  0  0  0
123122  1  1  0  0  0
123124  1  0  0  0  0
124125  2  0  0  0  0
125119  1  0  0  0  0
126127  1  0  0  0  0
126133  1  0  0  0  0
127128  2  0  0  0  0
128129  1  0  0  0  0
129123  1  0  0  0  0
129130  2  0  0  0  0
130131  1  0  0  0  0
130224  1  0  0  0  0
131132  2  0  0  0  0
131140  1  0  0  0  0
132124  1  0  0  0  0
132225  1  0  0  0  0
133185  1  0  0  0  0
133134  2  0  0  0  0
134135  1  0  0  0  0
134229  1  0  0  0  0
135136  2  0  0  0  0
135139  1  0  0  0  0
136127  1  0  0  0  0
136223  1  0  0  0  0
137117  1  0  0  0  0
138182  2  0  0  0  0
138183  1  0  0  0  0
139170  1  0  0  0  0
139172  2  0  0  0  0
140167  2  0  0  0  0
140168  1  0  0  0  0
141142  2  0  0  0  0
141228  1  0  0  0  0
142143  1  0  0  0  0
142162  1  0  0  0  0
143144  2  0  0  0  0
143147  1  0  0  0  0
144145  1  0  0  0  0
145146  2  0  0  0  0
145222  1  0  0  0  0
146141  1  0  0  0  0
146163  1  0  0  0  0
147151  2  0  0  0  0
148147  1  1  0  0  0
148149  1  0  0  0  0
149150  2  0  0  0  0
150144  1  0  0  0  0
151152  1  0  0  0  0
151158  1  0  0  0  0
152153  2  0  0  0  0
153154  1  0  0  0  0
154148  1  0  0  0  0
154155  2  0  0  0  0
155156  1  0  0  0  0
155219  1  0  0  0  0
156157  2  0  0  0  0
156165  1  0  0  0  0
157149  1  0  0  0  0
157220  1  0  0  0  0
158188  1  0  0  0  0
158159  2  0  0  0  0
159160  1  0  0  0  0
159230  1  0  0  0  0
160161  2  0  0  0  0
160164  1  0  0  0  0
161152  1  0  0  0  0
161221  1  0  0  0  0
163173  2  0  0  0  0
163174  1  0  0  0  0
164179  2  0  0  0  0
164180  1  0  0  0  0
165176  2  0  0  0  0
165177  1  0  0  0  0
166185  1  0  0  0  0
166188  1  0  0  0  0
166137  1  1  0  0  0
166162  1  0  0  0  0
168169  1  0  0  0  0
169197  1  0  0  0  0
169198  1  0  0  0  0
169199  1  0  0  0  0
170171  1  0  0  0  0
171194  1  0  0  0  0
171195  1  0  0  0  0
171196  1  0  0  0  0
174175  1  0  0  0  0
175191  1  0  0  0  0
175192  1  0  0  0  0
175193  1  0  0  0  0
177178  1  0  0  0  0
178213  1  0  0  0  0
178214  1  0  0  0  0
178215  1  0  0  0  0
180181  1  0  0  0  0
181210  1  0  0  0  0
181211  1  0  0  0  0
181212  1  0  0  0  0
183184  1  0  0  0  0
184216  1  0  0  0  0
184217  1  0  0  0  0
184218  1  0  0  0  0
185187  1  0  0  0  0
186187  1  0  0  0  0
186200  1  0  0  0  0
186201  1  0  0  0  0
186202  1  0  0  0  0
187203  1  0  0  0  0
187204  1  0  0  0  0
188190  1  0  0  0  0
189190  1  0  0  0  0
189205  1  0  0  0  0
189206  1  0  0  0  0
189207  1  0  0  0  0
190208  1  0  0  0  0
190209  1  0  0  0  0
M  END
