
 OpenBabel11142410563D

 52 56  0  0  0  0  0  0  0  0999 V2000
    0.9924    1.6730    0.1671 C   0  0  0  0  0  0  0  0  0  0  0  0
    1.0442    0.2220    0.1988 C   0  0  0  0  0  0  0  0  0  0  0  0
   -0.1943    2.5024    0.3017 C   0  0  0  0  0  0  0  0  0  0  0  0
    2.2383    2.3563   -0.0075 C   0  0  0  0  0  0  0  0  0  0  0  0
    2.3011   -0.4349    0.2856 C   0  0  0  0  0  0  0  0  0  0  0  0
   -0.1040    3.9035    0.0358 C   0  0  0  0  0  0  0  0  0  0  0  0
    3.4545    1.6658    0.0438 C   0  0  0  0  0  0  0  0  0  0  0  0
    2.2823    3.7369   -0.2310 C   0  0  0  0  0  0  0  0  0  0  0  0
    3.4868    0.2965    0.2404 C   0  0  0  0  0  0  0  0  0  0  0  0
    1.1234    4.4903   -0.2610 C   0  0  0  0  0  0  0  0  0  0  0  0
   -0.0904   -0.6170    0.0689 C   0  0  0  0  0  0  0  0  0  0  0  0
   -1.4557    2.0459    0.7809 C   0  0  0  0  0  0  0  0  0  0  0  0
    2.3715   -1.8311    0.3874 C   0  0  0  0  0  0  0  0  0  0  0  0
   -1.2394    4.7314    0.1104 C   0  0  0  0  0  0  0  0  0  0  0  0
   -0.0418   -2.0235    0.1490 C   0  0  0  0  0  0  0  0  0  0  0  0
   -2.5630    2.8839    0.8755 C   0  0  0  0  0  0  0  0  0  0  0  0
    1.2181   -2.6108    0.3451 C   0  0  0  0  0  0  0  0  0  0  0  0
   -2.4654    4.2166    0.5137 C   0  0  0  0  0  0  0  0  0  0  0  0
    4.3963    2.1956   -0.0500 H   0  0  0  0  0  0  0  0  0  0  0  0
    3.2275    4.2420   -0.3975 H   0  0  0  0  0  0  0  0  0  0  0  0
    4.4488   -0.2002    0.2967 H   0  0  0  0  0  0  0  0  0  0  0  0
    1.1973    5.5553   -0.4508 H   0  0  0  0  0  0  0  0  0  0  0  0
   -1.0235   -0.1945   -0.1424 H   0  0  0  0  0  0  0  0  0  0  0  0
   -1.6415    1.0710    1.1758 H   0  0  0  0  0  0  0  0  0  0  0  0
    3.3302   -2.3282    0.4820 H   0  0  0  0  0  0  0  0  0  0  0  0
   -1.1733    5.7890   -0.1147 H   0  0  0  0  0  0  0  0  0  0  0  0
   -1.3092   -2.8621    0.0669 C   0  0  0  0  0  0  0  0  0  0  0  0
   -3.5008    2.4921    1.2505 H   0  0  0  0  0  0  0  0  0  0  0  0
    1.3490   -3.6768    0.4104 H   0  0  0  0  0  0  0  0  0  0  0  0
   -3.3321    4.8594    0.5910 H   0  0  0  0  0  0  0  0  0  0  0  0
   -2.7267   -4.7151    0.3258 C   0  5  0  0  0  0  0  0  0  0  0  0
   -3.5065   -3.4485   -0.2255 C   0  0  0  0  0  0  0  0  0  0  0  0
   -2.5082   -5.8076   -0.7407 C   0  0  0  0  0  0  0  0  0  0  0  0
   -4.3676   -3.7369   -1.4803 C   0  0  0  0  0  0  0  0  0  0  0  0
   -4.4259   -2.7759    0.8264 C   0  0  0  0  0  0  0  0  0  0  0  0
   -2.4325   -2.5019   -0.4704 N   0  0  0  0  0  0  0  0  0  0  0  0
   -1.4336   -4.1561    0.6310 N   0  0  0  0  0  0  0  0  0  0  0  0
   -0.4542   -4.8461    1.2309 O   0  5  0  0  0  0  0  0  0  0  0  0
   -3.7686   -4.1266   -2.3266 H   0  0  0  0  0  0  0  0  0  0  0  0
   -4.8654   -2.8091   -1.8363 H   0  0  0  0  0  0  0  0  0  0  0  0
   -5.1601   -4.4763   -1.2299 H   0  0  0  0  0  0  0  0  0  0  0  0
   -3.8435   -2.4859    1.7279 H   0  0  0  0  0  0  0  0  0  0  0  0
   -5.2578   -3.4457    1.1274 H   0  0  0  0  0  0  0  0  0  0  0  0
   -4.8729   -1.8446    0.4144 H   0  0  0  0  0  0  0  0  0  0  0  0
   -3.3663   -5.3729    1.5657 C   0  0  0  0  0  0  0  0  0  0  0  0
   -3.4543   -4.6588    2.4096 H   0  0  0  0  0  0  0  0  0  0  0  0
   -2.7358   -6.2140    1.9252 H   0  0  0  0  0  0  0  0  0  0  0  0
   -4.3722   -5.7714    1.3144 H   0  0  0  0  0  0  0  0  0  0  0  0
   -2.0643   -5.3722   -1.6115 H   0  0  0  0  0  0  0  0  0  0  0  0
   -3.4493   -6.2452   -1.0009 H   0  0  0  0  0  0  0  0  0  0  0  0
   -1.8595   -6.5633   -0.3495 H   0  0  0  0  0  0  0  0  0  0  0  0
   -2.8675   -1.3948   -0.8967 O   0  0  0  0  0  0  0  0  0  0  0  0
  1  2  1  0  0  0  0
  1  3  1  0  0  0  0
  1  4  2  0  0  0  0
  2  5  1  0  0  0  0
  2 11  2  0  0  0  0
  3  6  1  0  0  0  0
  3 12  2  0  0  0  0
  4  7  1  0  0  0  0
  4  8  1  0  0  0  0
  5  9  1  0  0  0  0
  5 13  2  0  0  0  0
  6 10  1  0  0  0  0
  6 14  2  0  0  0  0
  7  9  2  0  0  0  0
  7 19  1  0  0  0  0
  8 10  2  0  0  0  0
  8 20  1  0  0  0  0
  9 21  1  0  0  0  0
 10 22  1  0  0  0  0
 11 15  1  0  0  0  0
 11 23  1  0  0  0  0
 12 16  1  0  0  0  0
 12 24  1  0  0  0  0
 13 17  1  0  0  0  0
 13 25  1  0  0  0  0
 14 18  1  0  0  0  0
 14 26  1  0  0  0  0
 15 17  2  0  0  0  0
 15 27  1  0  0  0  0
 16 18  2  0  0  0  0
 16 28  1  0  0  0  0
 17 29  1  0  0  0  0
 18 30  1  0  0  0  0
 27 36  2  0  0  0  0
 27 37  1  0  0  0  0
 31 37  1  0  0  0  0
 31 32  1  0  0  0  0
 31 33  1  0  0  0  0
 31 45  1  0  0  0  0
 32 36  1  0  0  0  0
 32 34  1  0  0  0  0
 32 35  1  0  0  0  0
 33 49  1  0  0  0  0
 33 50  1  0  0  0  0
 33 51  1  0  0  0  0
 34 39  1  0  0  0  0
 34 40  1  0  0  0  0
 34 41  1  0  0  0  0
 35 42  1  0  0  0  0
 35 43  1  0  0  0  0
 35 44  1  0  0  0  0
 36 52  1  0  0  0  0
 37 38  1  0  0  0  0
 45 46  1  0  0  0  0
 45 47  1  0  0  0  0
 45 48  1  0  0  0  0
M  CHG  2  31  -1  38  -1
M  END
