 energy: -158.382580862956 gnorm: 0.000302450762 xtb: 6.6.1 (8d0f1dd)
          11142410333D

104112  0     0  0            999 V2000
    0.9864    0.9188    1.2972 C   0  0  0  0  0  0  0  0  0  0  0  0
    0.7524   -0.4971    1.3061 C   0  0  0  0  0  0  0  0  0  0  0  0
   -0.0661    1.8928    1.2915 C   0  0  0  0  0  0  0  0  0  0  0  0
    2.3178    1.3640    1.2699 C   0  0  0  0  0  0  0  0  0  0  0  0
    1.8131   -1.3717    1.6520 C   0  0  0  0  0  0  0  0  0  0  0  0
    0.2452    3.2313    0.9433 C   0  0  0  0  0  0  0  0  0  0  0  0
    3.3740    0.4526    1.5285 C   0  0  0  0  0  0  0  0  0  0  0  0
    2.6000    2.7230    0.9763 C   0  0  0  0  0  0  0  0  0  0  0  0
    3.1227   -0.8528    1.7996 C   0  0  0  0  0  0  0  0  0  0  0  0
    1.5990    3.6069    0.7452 C   0  0  0  0  0  0  0  0  0  0  0  0
   -0.4428   -1.0640    0.8448 C   0  0  0  0  0  0  0  0  0  0  0  0
   -1.3847    1.6093    1.6973 C   0  0  0  0  0  0  0  0  0  0  0  0
    1.5556   -2.7510    1.7579 C   0  0  0  0  0  0  0  0  0  0  0  0
   -0.7856    4.1822    0.8538 C   0  0  0  0  0  0  0  0  0  0  0  0
   -0.6490   -2.4305    0.8709 C   0  0  0  0  0  0  0  0  0  0  0  0
   -2.3647    2.5660    1.6338 C   0  0  0  0  0  0  0  0  0  0  0  0
    0.3437   -3.2753    1.4086 C   0  0  0  0  0  0  0  0  0  0  0  0
   -2.0762    3.8515    1.1689 C   0  0  0  0  0  0  0  0  0  0  0  0
    4.3852    0.8339    1.5367 H   0  0  0  0  0  0  0  0  0  0  0  0
    3.6352    3.0271    0.9110 H   0  0  0  0  0  0  0  0  0  0  0  0
    3.9215   -1.5318    2.0607 H   0  0  0  0  0  0  0  0  0  0  0  0
    1.8136    4.6277    0.4622 H   0  0  0  0  0  0  0  0  0  0  0  0
   -1.1845   -0.4319    0.3879 H   0  0  0  0  0  0  0  0  0  0  0  0
   -1.6240    0.6415    2.1082 H   0  0  0  0  0  0  0  0  0  0  0  0
    2.3523   -3.4017    2.0886 H   0  0  0  0  0  0  0  0  0  0  0  0
   -0.5342    5.1896    0.5523 H   0  0  0  0  0  0  0  0  0  0  0  0
   -1.8588   -2.9882    0.2927 C   0  0  0  0  0  0  0  0  0  0  0  0
   -3.3668    2.3288    1.9590 H   0  0  0  0  0  0  0  0  0  0  0  0
    0.1598   -4.3350    1.4875 H   0  0  0  0  0  0  0  0  0  0  0  0
   -2.8641    4.5873    1.0985 H   0  0  0  0  0  0  0  0  0  0  0  0
   -3.4700   -4.5358   -0.3488 C   0  0  0  0  0  0  0  0  0  0  0  0
   -3.8500   -3.1460   -0.8950 C   0  0  0  0  0  0  0  0  0  0  0  0
   -2.8312   -5.4536   -1.3992 C   0  0  0  0  0  0  0  0  0  0  0  0
   -4.2176   -3.0839   -2.3705 C   0  0  0  0  0  0  0  0  0  0  0  0
   -4.9246   -2.4323   -0.0661 C   0  0  0  0  0  0  0  0  0  0  0  0
   -2.6008   -2.3903   -0.6532 N   0  0  0  0  0  0  0  0  0  0  0  0
   -2.3822   -1.2999   -1.2439 O   0  0  0  0  0  0  0  0  0  0  0  0
   -2.3839   -4.1838    0.5888 N   0  0  0  0  0  0  0  0  0  0  0  0
   -2.0040   -5.0017    1.4816 O   0  0  0  0  0  0  0  0  0  0  0  0
   -3.4292   -3.4854   -2.9994 H   0  0  0  0  0  0  0  0  0  0  0  0
   -4.3649   -2.0431   -2.6484 H   0  0  0  0  0  0  0  0  0  0  0  0
   -5.1372   -3.6339   -2.5501 H   0  0  0  0  0  0  0  0  0  0  0  0
   -4.6566   -2.4238    0.9881 H   0  0  0  0  0  0  0  0  0  0  0  0
   -5.8945   -2.9040   -0.1949 H   0  0  0  0  0  0  0  0  0  0  0  0
   -4.9894   -1.4000   -0.4038 H   0  0  0  0  0  0  0  0  0  0  0  0
   -4.5709   -5.2946    0.3794 C   0  0  0  0  0  0  0  0  0  0  0  0
   -5.0092   -4.7041    1.1771 H   0  0  0  0  0  0  0  0  0  0  0  0
   -4.1414   -6.1912    0.8205 H   0  0  0  0  0  0  0  0  0  0  0  0
   -5.3482   -5.5838   -0.3222 H   0  0  0  0  0  0  0  0  0  0  0  0
   -2.0274   -4.9437   -1.9262 H   0  0  0  0  0  0  0  0  0  0  0  0
   -3.5714   -5.7975   -2.1156 H   0  0  0  0  0  0  0  0  0  0  0  0
   -2.4091   -6.3189   -0.8916 H   0  0  0  0  0  0  0  0  0  0  0  0
    0.8458    2.1086    4.4710 C   0  0  0  0  0  0  0  0  0  0  0  0
    1.1151    0.7001    4.5821 C   0  0  0  0  0  0  0  0  0  0  0  0
   -0.4524    2.6961    4.6545 C   0  0  0  0  0  0  0  0  0  0  0  0
    1.9250    2.9666    4.1980 C   0  0  0  0  0  0  0  0  0  0  0  0
    2.4576    0.2654    4.7316 C   0  0  0  0  0  0  0  0  0  0  0  0
   -0.6650    4.0373    4.2441 C   0  0  0  0  0  0  0  0  0  0  0  0
    3.2572    2.4863    4.2782 C   0  0  0  0  0  0  0  0  0  0  0  0
    1.6903    4.3226    3.8542 C   0  0  0  0  0  0  0  0  0  0  0  0
    3.5167    1.1982    4.6087 C   0  0  0  0  0  0  0  0  0  0  0  0
    0.4317    4.8196    3.8022 C   0  0  0  0  0  0  0  0  0  0  0  0
    0.1204   -0.2861    4.4989 C   0  0  0  0  0  0  0  0  0  0  0  0
   -1.5104    2.0553    5.3278 C   0  0  0  0  0  0  0  0  0  0  0  0
    2.7248   -1.0975    4.9502 C   0  0  0  0  0  0  0  0  0  0  0  0
   -1.9469    4.6038    4.3452 C   0  0  0  0  0  0  0  0  0  0  0  0
    0.3977   -1.6203    4.7411 C   0  0  0  0  0  0  0  0  0  0  0  0
   -2.7452    2.6403    5.4422 C   0  0  0  0  0  0  0  0  0  0  0  0
    1.7219   -2.0234    4.9954 C   0  0  0  0  0  0  0  0  0  0  0  0
   -2.9838    3.9076    4.9050 C   0  0  0  0  0  0  0  0  0  0  0  0
    4.0617    3.1868    4.1040 H   0  0  0  0  0  0  0  0  0  0  0  0
    2.5420    4.9405    3.6082 H   0  0  0  0  0  0  0  0  0  0  0  0
    4.5307    0.8472    4.7353 H   0  0  0  0  0  0  0  0  0  0  0  0
    0.2456    5.8354    3.4847 H   0  0  0  0  0  0  0  0  0  0  0  0
   -0.8791   -0.0112    4.2089 H   0  0  0  0  0  0  0  0  0  0  0  0
   -1.3326    1.1139    5.8224 H   0  0  0  0  0  0  0  0  0  0  0  0
    3.7522   -1.4053    5.0816 H   0  0  0  0  0  0  0  0  0  0  0  0
   -2.0910    5.6161    3.9951 H   0  0  0  0  0  0  0  0  0  0  0  0
   -0.6925   -2.5809    4.8290 C   0  0  0  0  0  0  0  0  0  0  0  0
   -3.5369    2.1263    5.9683 H   0  0  0  0  0  0  0  0  0  0  0  0
    1.9357   -3.0586    5.2025 H   0  0  0  0  0  0  0  0  0  0  0  0
   -3.9672    4.3485    4.9786 H   0  0  0  0  0  0  0  0  0  0  0  0
   -1.9327   -4.4240    5.5241 C   0  0  0  0  0  0  0  0  0  0  0  0
   -2.8702   -3.3787    4.8883 C   0  0  0  0  0  0  0  0  0  0  0  0
   -1.6397   -5.6315    4.6280 C   0  0  0  0  0  0  0  0  0  0  0  0
   -3.8435   -3.9133    3.8500 C   0  0  0  0  0  0  0  0  0  0  0  0
   -3.6336   -2.5285    5.9140 C   0  0  0  0  0  0  0  0  0  0  0  0
   -1.9013   -2.4530    4.2620 N   0  0  0  0  0  0  0  0  0  0  0  0
   -2.2702   -1.5973    3.4055 O   0  0  0  0  0  0  0  0  0  0  0  0
   -0.6696   -3.6627    5.6211 N   0  0  0  0  0  0  0  0  0  0  0  0
    0.2765   -4.0742    6.3446 O   0  0  0  0  0  0  0  0  0  0  0  0
   -3.3183   -4.4629    3.0752 H   0  0  0  0  0  0  0  0  0  0  0  0
   -4.3616   -3.0706    3.3969 H   0  0  0  0  0  0  0  0  0  0  0  0
   -4.5724   -4.5660    4.3226 H   0  0  0  0  0  0  0  0  0  0  0  0
   -2.9589   -2.1133    6.6600 H   0  0  0  0  0  0  0  0  0  0  0  0
   -4.4014   -3.1154    6.4097 H   0  0  0  0  0  0  0  0  0  0  0  0
   -4.1093   -1.7013    5.3902 H   0  0  0  0  0  0  0  0  0  0  0  0
   -2.3306   -4.9154    6.9114 C   0  0  0  0  0  0  0  0  0  0  0  0
   -2.4248   -4.0978    7.6196 H   0  0  0  0  0  0  0  0  0  0  0  0
   -1.5548   -5.5834    7.2774 H   0  0  0  0  0  0  0  0  0  0  0  0
   -3.2704   -5.4579    6.8603 H   0  0  0  0  0  0  0  0  0  0  0  0
   -1.4078   -5.3324    3.6093 H   0  0  0  0  0  0  0  0  0  0  0  0
   -2.4887   -6.3086    4.6102 H   0  0  0  0  0  0  0  0  0  0  0  0
   -0.7815   -6.1605    5.0376 H   0  0  0  0  0  0  0  0  0  0  0  0
  1  2  1  0  0  0  0
  1  3  1  0  0  0  0
  1  4  2  0  0  0  0
  2  5  1  0  0  0  0
  2 11  2  0  0  0  0
  3  6  1  0  0  0  0
  3 12  2  0  0  0  0
  4  7  1  0  0  0  0
  4  8  1  0  0  0  0
  5  9  1  0  0  0  0
  5 13  2  0  0  0  0
  6 10  1  0  0  0  0
  6 14  2  0  0  0  0
  7  9  2  0  0  0  0
  7 19  1  0  0  0  0
  8 10  2  0  0  0  0
  8 20  1  0  0  0  0
  9 21  1  0  0  0  0
 10 22  1  0  0  0  0
 11 15  1  0  0  0  0
 11 23  1  0  0  0  0
 12 16  1  0  0  0  0
 12 24  1  0  0  0  0
 13 17  1  0  0  0  0
 13 25  1  0  0  0  0
 14 18  1  0  0  0  0
 14 26  1  0  0  0  0
 15 17  2  0  0  0  0
 15 27  1  0  0  0  0
 16 18  2  0  0  0  0
 16 28  1  0  0  0  0
 17 29  1  0  0  0  0
 18 30  1  0  0  0  0
 27 36  2  0  0  0  0
 27 38  1  0  0  0  0
 31 38  1  0  0  0  0
 31 32  1  0  0  0  0
 31 33  1  0  0  0  0
 31 46  1  0  0  0  0
 32 36  1  0  0  0  0
 32 34  1  0  0  0  0
 32 35  1  0  0  0  0
 33 50  1  0  0  0  0
 33 51  1  0  0  0  0
 33 52  1  0  0  0  0
 34 40  1  0  0  0  0
 34 41  1  0  0  0  0
 34 42  1  0  0  0  0
 35 43  1  0  0  0  0
 35 44  1  0  0  0  0
 35 45  1  0  0  0  0
 36 37  2  0  0  0  0
 38 39  1  0  0  0  0
 46 47  1  0  0  0  0
 46 48  1  0  0  0  0
 46 49  1  0  0  0  0
 53 54  1  0  0  0  0
 53 55  1  0  0  0  0
 53 56  2  0  0  0  0
 54 57  1  0  0  0  0
 54 63  2  0  0  0  0
 55 58  1  0  0  0  0
 55 64  2  0  0  0  0
 56 59  1  0  0  0  0
 56 60  1  0  0  0  0
 57 61  1  0  0  0  0
 57 65  2  0  0  0  0
 58 62  1  0  0  0  0
 58 66  2  0  0  0  0
 59 61  2  0  0  0  0
 59 71  1  0  0  0  0
 60 62  2  0  0  0  0
 60 72  1  0  0  0  0
 61 73  1  0  0  0  0
 62 74  1  0  0  0  0
 63 67  1  0  0  0  0
 63 75  1  0  0  0  0
 64 68  1  0  0  0  0
 64 76  1  0  0  0  0
 65 69  1  0  0  0  0
 65 77  1  0  0  0  0
 66 70  1  0  0  0  0
 66 78  1  0  0  0  0
 67 69  2  0  0  0  0
 67 79  1  0  0  0  0
 68 70  2  0  0  0  0
 68 80  1  0  0  0  0
 69 81  1  0  0  0  0
 70 82  1  0  0  0  0
 79 88  2  0  0  0  0
 79 90  1  0  0  0  0
 83 90  1  0  0  0  0
 83 84  1  0  0  0  0
 83 85  1  0  0  0  0
 83 98  1  0  0  0  0
 84 88  1  0  0  0  0
 84 86  1  0  0  0  0
 84 87  1  0  0  0  0
 85102  1  0  0  0  0
 85103  1  0  0  0  0
 85104  1  0  0  0  0
 86 92  1  0  0  0  0
 86 93  1  0  0  0  0
 86 94  1  0  0  0  0
 87 95  1  0  0  0  0
 87 96  1  0  0  0  0
 87 97  1  0  0  0  0
 88 89  2  0  0  0  0
 90 91  1  0  0  0  0
 98 99  1  0  0  0  0
 98100  1  0  0  0  0
 98101  1  0  0  0  0
M  END
