 energy: -78.761344611868 gnorm: 0.000288061197 xtb: 6.6.1 (8d0f1dd)
          11142410573D

 52 56  0     0  0            999 V2000
    0.9901    1.6203    0.1766 C   0  0  0  0  0  0  0  0  0  0  0  0
    1.0076    0.1908    0.3150 C   0  0  0  0  0  0  0  0  0  0  0  0
   -0.1868    2.4212    0.3446 C   0  0  0  0  0  0  0  0  0  0  0  0
    2.2031    2.2686   -0.1521 C   0  0  0  0  0  0  0  0  0  0  0  0
    2.2562   -0.4716    0.4650 C   0  0  0  0  0  0  0  0  0  0  0  0
   -0.1850    3.7522   -0.1519 C   0  0  0  0  0  0  0  0  0  0  0  0
    3.4317    1.5649   -0.0518 C   0  0  0  0  0  0  0  0  0  0  0  0
    2.1869    3.6168   -0.5804 C   0  0  0  0  0  0  0  0  0  0  0  0
    3.4636    0.2601    0.3208 C   0  0  0  0  0  0  0  0  0  0  0  0
    1.0188    4.3121   -0.6518 C   0  0  0  0  0  0  0  0  0  0  0  0
   -0.1470   -0.5957    0.2040 C   0  0  0  0  0  0  0  0  0  0  0  0
   -1.3205    1.9942    1.0602 C   0  0  0  0  0  0  0  0  0  0  0  0
    2.2737   -1.8584    0.6871 C   0  0  0  0  0  0  0  0  0  0  0  0
   -1.3588    4.5208   -0.0791 C   0  0  0  0  0  0  0  0  0  0  0  0
   -0.1087   -1.9740    0.3897 C   0  0  0  0  0  0  0  0  0  0  0  0
   -2.4501    2.7789    1.1459 C   0  0  0  0  0  0  0  0  0  0  0  0
    1.1229   -2.5990    0.6814 C   0  0  0  0  0  0  0  0  0  0  0  0
   -2.4872    4.0325    0.5394 C   0  0  0  0  0  0  0  0  0  0  0  0
    4.3450    2.1029   -0.2558 H   0  0  0  0  0  0  0  0  0  0  0  0
    3.1200    4.0741   -0.8721 H   0  0  0  0  0  0  0  0  0  0  0  0
    4.4006   -0.2598    0.4488 H   0  0  0  0  0  0  0  0  0  0  0  0
    1.0009    5.3249   -1.0250 H   0  0  0  0  0  0  0  0  0  0  0  0
   -1.0672   -0.1238   -0.0984 H   0  0  0  0  0  0  0  0  0  0  0  0
   -1.2795    1.0700    1.6163 H   0  0  0  0  0  0  0  0  0  0  0  0
    3.2236   -2.3459    0.8447 H   0  0  0  0  0  0  0  0  0  0  0  0
   -1.3543    5.5143   -0.5017 H   0  0  0  0  0  0  0  0  0  0  0  0
   -1.3163   -2.7698    0.2550 C   0  0  0  0  0  0  0  0  0  0  0  0
   -3.3054    2.4293    1.7038 H   0  0  0  0  0  0  0  0  0  0  0  0
    1.1692   -3.6604    0.8596 H   0  0  0  0  0  0  0  0  0  0  0  0
   -3.3821    4.6325    0.5940 H   0  0  0  0  0  0  0  0  0  0  0  0
   -2.7375   -4.6237    0.2321 C   0  0  0  0  0  0  0  0  0  0  0  0
   -3.5352   -3.3685   -0.1691 C   0  0  0  0  0  0  0  0  0  0  0  0
   -2.3208   -5.4879   -0.9665 C   0  0  0  0  0  0  0  0  0  0  0  0
   -4.3734   -3.4727   -1.4350 C   0  0  0  0  0  0  0  0  0  0  0  0
   -4.3922   -2.8036    0.9720 C   0  0  0  0  0  0  0  0  0  0  0  0
   -2.4502   -2.3851   -0.3672 N   0  0  0  0  0  0  0  0  0  0  0  0
   -1.4834   -4.0232    0.7305 N   0  0  0  0  0  0  0  0  0  0  0  0
   -0.7055   -4.6608    1.4339 O   0  0  0  0  0  0  0  0  0  0  0  0
   -3.7735   -3.7381   -2.3001 H   0  0  0  0  0  0  0  0  0  0  0  0
   -4.8427   -2.5129   -1.6366 H   0  0  0  0  0  0  0  0  0  0  0  0
   -5.1527   -4.2169   -1.3009 H   0  0  0  0  0  0  0  0  0  0  0  0
   -3.8195   -2.6954    1.8909 H   0  0  0  0  0  0  0  0  0  0  0  0
   -5.2444   -3.4502    1.1567 H   0  0  0  0  0  0  0  0  0  0  0  0
   -4.7641   -1.8229    0.6812 H   0  0  0  0  0  0  0  0  0  0  0  0
   -3.3517   -5.5064    1.3088 C   0  0  0  0  0  0  0  0  0  0  0  0
   -3.5393   -4.9592    2.2276 H   0  0  0  0  0  0  0  0  0  0  0  0
   -2.6688   -6.3203    1.5397 H   0  0  0  0  0  0  0  0  0  0  0  0
   -4.2848   -5.9306    0.9505 H   0  0  0  0  0  0  0  0  0  0  0  0
   -1.8504   -4.8947   -1.7481 H   0  0  0  0  0  0  0  0  0  0  0  0
   -3.1855   -5.9997   -1.3779 H   0  0  0  0  0  0  0  0  0  0  0  0
   -1.6083   -6.2389   -0.6308 H   0  0  0  0  0  0  0  0  0  0  0  0
   -2.6464   -1.3304   -0.9706 O   0  0  0  0  0  0  0  0  0  0  0  0
  1  2  1  0  0  0  0
  1  3  1  0  0  0  0
  1  4  2  0  0  0  0
  2  5  1  0  0  0  0
  2 11  2  0  0  0  0
  3  6  1  0  0  0  0
  3 12  2  0  0  0  0
  4  7  1  0  0  0  0
  4  8  1  0  0  0  0
  5  9  1  0  0  0  0
  5 13  2  0  0  0  0
  6 10  1  0  0  0  0
  6 14  2  0  0  0  0
  7  9  2  0  0  0  0
  7 19  1  0  0  0  0
  8 10  2  0  0  0  0
  8 20  1  0  0  0  0
  9 21  1  0  0  0  0
 10 22  1  0  0  0  0
 11 15  1  0  0  0  0
 11 23  1  0  0  0  0
 12 16  1  0  0  0  0
 12 24  1  0  0  0  0
 13 17  1  0  0  0  0
 13 25  1  0  0  0  0
 14 18  1  0  0  0  0
 14 26  1  0  0  0  0
 15 17  2  0  0  0  0
 15 27  1  0  0  0  0
 16 18  2  0  0  0  0
 16 28  1  0  0  0  0
 17 29  1  0  0  0  0
 18 30  1  0  0  0  0
 27 36  2  0  0  0  0
 27 37  1  0  0  0  0
 31 37  1  0  0  0  0
 31 32  1  0  0  0  0
 31 33  1  0  0  0  0
 31 45  1  0  0  0  0
 32 36  1  0  0  0  0
 32 34  1  0  0  0  0
 32 35  1  0  0  0  0
 33 49  1  0  0  0  0
 33 50  1  0  0  0  0
 33 51  1  0  0  0  0
 34 39  1  0  0  0  0
 34 40  1  0  0  0  0
 34 41  1  0  0  0  0
 35 42  1  0  0  0  0
 35 43  1  0  0  0  0
 35 44  1  0  0  0  0
 36 52  1  0  0  0  0
 37 38  1  0  0  0  0
 45 46  1  0  0  0  0
 45 47  1  0  0  0  0
 45 48  1  0  0  0  0
M  CHG  1   1   1
M  END
