 energy: -158.644052596896 gnorm: 0.000227739377 xtb: 6.6.1 (8d0f1dd)
          11142410343D

104112  0     0  0            999 V2000
    0.8343    0.8068    1.3851 C   0  0  0  0  0  0  0  0  0  0  0  0
    0.5839   -0.6066    1.3780 C   0  0  0  0  0  0  0  0  0  0  0  0
   -0.2065    1.7925    1.3735 C   0  0  0  0  0  0  0  0  0  0  0  0
    2.1694    1.2432    1.3944 C   0  0  0  0  0  0  0  0  0  0  0  0
    1.6288   -1.4856    1.7602 C   0  0  0  0  0  0  0  0  0  0  0  0
    0.1213    3.1313    1.0416 C   0  0  0  0  0  0  0  0  0  0  0  0
    3.2106    0.3259    1.6880 C   0  0  0  0  0  0  0  0  0  0  0  0
    2.4680    2.5992    1.1058 C   0  0  0  0  0  0  0  0  0  0  0  0
    2.9356   -0.9753    1.9554 C   0  0  0  0  0  0  0  0  0  0  0  0
    1.4805    3.4941    0.8590 C   0  0  0  0  0  0  0  0  0  0  0  0
   -0.6028   -1.1634    0.8811 C   0  0  0  0  0  0  0  0  0  0  0  0
   -1.5284    1.5150    1.7721 C   0  0  0  0  0  0  0  0  0  0  0  0
    1.3613   -2.8634    1.8507 C   0  0  0  0  0  0  0  0  0  0  0  0
   -0.8988    4.0937    0.9580 C   0  0  0  0  0  0  0  0  0  0  0  0
   -0.8098   -2.5307    0.8773 C   0  0  0  0  0  0  0  0  0  0  0  0
   -2.4957    2.4856    1.7194 C   0  0  0  0  0  0  0  0  0  0  0  0
    0.1638   -3.3786    1.4442 C   0  0  0  0  0  0  0  0  0  0  0  0
   -2.1929    3.7729    1.2692 C   0  0  0  0  0  0  0  0  0  0  0  0
    4.2246    0.7005    1.7328 H   0  0  0  0  0  0  0  0  0  0  0  0
    3.5082    2.8942    1.0600 H   0  0  0  0  0  0  0  0  0  0  0  0
    3.7184   -1.6606    2.2509 H   0  0  0  0  0  0  0  0  0  0  0  0
    1.7100    4.5146    0.5819 H   0  0  0  0  0  0  0  0  0  0  0  0
   -1.3378   -0.5315    0.4111 H   0  0  0  0  0  0  0  0  0  0  0  0
   -1.7769    0.5461    2.1756 H   0  0  0  0  0  0  0  0  0  0  0  0
    2.1400   -3.5193    2.2154 H   0  0  0  0  0  0  0  0  0  0  0  0
   -0.6354    5.1037    0.6706 H   0  0  0  0  0  0  0  0  0  0  0  0
   -1.9931   -3.0925    0.2479 C   0  0  0  0  0  0  0  0  0  0  0  0
   -3.5009    2.2557    2.0409 H   0  0  0  0  0  0  0  0  0  0  0  0
   -0.0336   -4.4375    1.5028 H   0  0  0  0  0  0  0  0  0  0  0  0
   -2.9726    4.5204    1.2077 H   0  0  0  0  0  0  0  0  0  0  0  0
   -3.5533   -4.6540   -0.4761 C   0  0  0  0  0  0  0  0  0  0  0  0
   -3.9430   -3.2561   -0.9987 C   0  0  0  0  0  0  0  0  0  0  0  0
   -2.9286   -5.5677   -1.5407 C   0  0  0  0  0  0  0  0  0  0  0  0
   -4.2306   -3.1593   -2.4930 C   0  0  0  0  0  0  0  0  0  0  0  0
   -5.0977   -2.6026   -0.2278 C   0  0  0  0  0  0  0  0  0  0  0  0
   -2.7377   -2.4646   -0.6715 N   0  0  0  0  0  0  0  0  0  0  0  0
   -2.5785   -1.2945   -1.1870 O   0  0  0  0  0  0  0  0  0  0  0  0
   -2.4701   -4.3256    0.4673 N   0  0  0  0  0  0  0  0  0  0  0  0
   -2.0344   -5.2300    1.2902 O   0  0  0  0  0  0  0  0  0  0  0  0
   -3.4105   -3.5519   -3.0859 H   0  0  0  0  0  0  0  0  0  0  0  0
   -4.3450   -2.1070   -2.7434 H   0  0  0  0  0  0  0  0  0  0  0  0
   -5.1451   -3.6934   -2.7401 H   0  0  0  0  0  0  0  0  0  0  0  0
   -4.8992   -2.6185    0.8410 H   0  0  0  0  0  0  0  0  0  0  0  0
   -6.0440   -3.0972   -0.4333 H   0  0  0  0  0  0  0  0  0  0  0  0
   -5.1627   -1.5624   -0.5408 H   0  0  0  0  0  0  0  0  0  0  0  0
   -4.6505   -5.4261    0.2497 C   0  0  0  0  0  0  0  0  0  0  0  0
   -5.0863   -4.8407    1.0526 H   0  0  0  0  0  0  0  0  0  0  0  0
   -4.1990   -6.3118    0.6917 H   0  0  0  0  0  0  0  0  0  0  0  0
   -5.4295   -5.7261   -0.4472 H   0  0  0  0  0  0  0  0  0  0  0  0
   -2.1210   -5.0553   -2.0590 H   0  0  0  0  0  0  0  0  0  0  0  0
   -3.6696   -5.9043   -2.2614 H   0  0  0  0  0  0  0  0  0  0  0  0
   -2.5072   -6.4330   -1.0324 H   0  0  0  0  0  0  0  0  0  0  0  0
    1.0147    2.2218    4.5425 C   0  0  0  0  0  0  0  0  0  0  0  0
    1.2596    0.8124    4.6928 C   0  0  0  0  0  0  0  0  0  0  0  0
   -0.2800    2.8307    4.6767 C   0  0  0  0  0  0  0  0  0  0  0  0
    2.1136    3.0612    4.2882 C   0  0  0  0  0  0  0  0  0  0  0  0
    2.5908    0.3678    4.9060 C   0  0  0  0  0  0  0  0  0  0  0  0
   -0.4602    4.1729    4.2538 C   0  0  0  0  0  0  0  0  0  0  0  0
    3.4362    2.5652    4.4153 C   0  0  0  0  0  0  0  0  0  0  0  0
    1.9073    4.4146    3.9178 C   0  0  0  0  0  0  0  0  0  0  0  0
    3.6650    1.2821    4.7881 C   0  0  0  0  0  0  0  0  0  0  0  0
    0.6595    4.9331    3.8322 C   0  0  0  0  0  0  0  0  0  0  0  0
    0.2570   -0.1620    4.5874 C   0  0  0  0  0  0  0  0  0  0  0  0
   -1.3694    2.2081    5.3157 C   0  0  0  0  0  0  0  0  0  0  0  0
    2.8261   -0.9915    5.1783 C   0  0  0  0  0  0  0  0  0  0  0  0
   -1.7340    4.7621    4.3199 C   0  0  0  0  0  0  0  0  0  0  0  0
    0.5015   -1.4969    4.8661 C   0  0  0  0  0  0  0  0  0  0  0  0
   -2.5967    2.8140    5.3935 C   0  0  0  0  0  0  0  0  0  0  0  0
    1.8091   -1.9022    5.1993 C   0  0  0  0  0  0  0  0  0  0  0  0
   -2.7976    4.0858    4.8527 C   0  0  0  0  0  0  0  0  0  0  0  0
    4.2569    3.2489    4.2428 H   0  0  0  0  0  0  0  0  0  0  0  0
    2.7751    5.0151    3.6793 H   0  0  0  0  0  0  0  0  0  0  0  0
    4.6715    0.9201    4.9510 H   0  0  0  0  0  0  0  0  0  0  0  0
    0.4982    5.9487    3.4970 H   0  0  0  0  0  0  0  0  0  0  0  0
   -0.7241    0.1090    4.2357 H   0  0  0  0  0  0  0  0  0  0  0  0
   -1.2279    1.2572    5.8015 H   0  0  0  0  0  0  0  0  0  0  0  0
    3.8439   -1.3099    5.3619 H   0  0  0  0  0  0  0  0  0  0  0  0
   -1.8515    5.7754    3.9597 H   0  0  0  0  0  0  0  0  0  0  0  0
   -0.5918   -2.4541    4.8794 C   0  0  0  0  0  0  0  0  0  0  0  0
   -3.4135    2.3081    5.8880 H   0  0  0  0  0  0  0  0  0  0  0  0
    1.9874   -2.9366    5.4447 H   0  0  0  0  0  0  0  0  0  0  0  0
   -3.7758    4.5442    4.8961 H   0  0  0  0  0  0  0  0  0  0  0  0
   -1.8465   -4.3443    5.4034 C   0  0  0  0  0  0  0  0  0  0  0  0
   -2.7713   -3.2556    4.8160 C   0  0  0  0  0  0  0  0  0  0  0  0
   -1.6002   -5.5440    4.4835 C   0  0  0  0  0  0  0  0  0  0  0  0
   -3.6669   -3.6913    3.6634 C   0  0  0  0  0  0  0  0  0  0  0  0
   -3.6349   -2.5308    5.8612 C   0  0  0  0  0  0  0  0  0  0  0  0
   -1.8027   -2.2467    4.3428 N   0  0  0  0  0  0  0  0  0  0  0  0
   -2.2108   -1.2353    3.6554 O   0  0  0  0  0  0  0  0  0  0  0  0
   -0.5637   -3.6245    5.5313 N   0  0  0  0  0  0  0  0  0  0  0  0
    0.4089   -4.1591    6.1848 O   0  0  0  0  0  0  0  0  0  0  0  0
   -3.1145   -4.2566    2.9212 H   0  0  0  0  0  0  0  0  0  0  0  0
   -4.0581   -2.7898    3.1941 H   0  0  0  0  0  0  0  0  0  0  0  0
   -4.4933   -4.2953    4.0320 H   0  0  0  0  0  0  0  0  0  0  0  0
   -3.0216   -2.1453    6.6734 H   0  0  0  0  0  0  0  0  0  0  0  0
   -4.4029   -3.1853    6.2650 H   0  0  0  0  0  0  0  0  0  0  0  0
   -4.1106   -1.6843    5.3690 H   0  0  0  0  0  0  0  0  0  0  0  0
   -2.2475   -4.8724    6.7811 C   0  0  0  0  0  0  0  0  0  0  0  0
   -2.3386   -4.0726    7.5103 H   0  0  0  0  0  0  0  0  0  0  0  0
   -1.4635   -5.5444    7.1228 H   0  0  0  0  0  0  0  0  0  0  0  0
   -3.1866   -5.4167    6.7204 H   0  0  0  0  0  0  0  0  0  0  0  0
   -1.3652   -5.2409    3.4674 H   0  0  0  0  0  0  0  0  0  0  0  0
   -2.4702   -6.1949    4.4579 H   0  0  0  0  0  0  0  0  0  0  0  0
   -0.7530   -6.1005    4.8804 H   0  0  0  0  0  0  0  0  0  0  0  0
  1  2  1  0  0  0  0
  1  3  1  0  0  0  0
  1  4  2  0  0  0  0
  2  5  1  0  0  0  0
  2 11  2  0  0  0  0
  3  6  1  0  0  0  0
  3 12  2  0  0  0  0
  4  7  1  0  0  0  0
  4  8  1  0  0  0  0
  5  9  1  0  0  0  0
  5 13  2  0  0  0  0
  6 10  1  0  0  0  0
  6 14  2  0  0  0  0
  7  9  2  0  0  0  0
  7 19  1  0  0  0  0
  8 10  2  0  0  0  0
  8 20  1  0  0  0  0
  9 21  1  0  0  0  0
 10 22  1  0  0  0  0
 11 15  1  0  0  0  0
 11 23  1  0  0  0  0
 12 16  1  0  0  0  0
 12 24  1  0  0  0  0
 13 17  1  0  0  0  0
 13 25  1  0  0  0  0
 14 18  1  0  0  0  0
 14 26  1  0  0  0  0
 15 17  2  0  0  0  0
 15 27  1  0  0  0  0
 16 18  2  0  0  0  0
 16 28  1  0  0  0  0
 17 29  1  0  0  0  0
 18 30  1  0  0  0  0
 27 36  2  0  0  0  0
 27 38  1  0  0  0  0
 31 38  1  0  0  0  0
 31 32  1  0  0  0  0
 31 33  1  0  0  0  0
 31 46  1  0  0  0  0
 32 36  1  0  0  0  0
 32 34  1  0  0  0  0
 32 35  1  0  0  0  0
 33 50  1  0  0  0  0
 33 51  1  0  0  0  0
 33 52  1  0  0  0  0
 34 40  1  0  0  0  0
 34 41  1  0  0  0  0
 34 42  1  0  0  0  0
 35 43  1  0  0  0  0
 35 44  1  0  0  0  0
 35 45  1  0  0  0  0
 36 37  2  0  0  0  0
 38 39  1  0  0  0  0
 46 47  1  0  0  0  0
 46 48  1  0  0  0  0
 46 49  1  0  0  0  0
 53 54  1  0  0  0  0
 53 55  1  0  0  0  0
 53 56  2  0  0  0  0
 54 57  1  0  0  0  0
 54 63  2  0  0  0  0
 55 58  1  0  0  0  0
 55 64  2  0  0  0  0
 56 59  1  0  0  0  0
 56 60  1  0  0  0  0
 57 61  1  0  0  0  0
 57 65  2  0  0  0  0
 58 62  1  0  0  0  0
 58 66  2  0  0  0  0
 59 61  2  0  0  0  0
 59 71  1  0  0  0  0
 60 62  2  0  0  0  0
 60 72  1  0  0  0  0
 61 73  1  0  0  0  0
 62 74  1  0  0  0  0
 63 67  1  0  0  0  0
 63 75  1  0  0  0  0
 64 68  1  0  0  0  0
 64 76  1  0  0  0  0
 65 69  1  0  0  0  0
 65 77  1  0  0  0  0
 66 70  1  0  0  0  0
 66 78  1  0  0  0  0
 67 69  2  0  0  0  0
 67 79  1  0  0  0  0
 68 70  2  0  0  0  0
 68 80  1  0  0  0  0
 69 81  1  0  0  0  0
 70 82  1  0  0  0  0
 79 88  2  0  0  0  0
 79 90  1  0  0  0  0
 83 90  1  0  0  0  0
 83 84  1  0  0  0  0
 83 85  1  0  0  0  0
 83 98  1  0  0  0  0
 84 88  1  0  0  0  0
 84 86  1  0  0  0  0
 84 87  1  0  0  0  0
 85102  1  0  0  0  0
 85103  1  0  0  0  0
 85104  1  0  0  0  0
 86 92  1  0  0  0  0
 86 93  1  0  0  0  0
 86 94  1  0  0  0  0
 87 95  1  0  0  0  0
 87 96  1  0  0  0  0
 87 97  1  0  0  0  0
 88 89  2  0  0  0  0
 90 91  1  0  0  0  0
 98 99  1  0  0  0  0
 98100  1  0  0  0  0
 98101  1  0  0  0  0
M  CHG  1   1  -1
M  END
