 energy: -157.994803222125 gnorm: 0.000457151526 xtb: 6.6.1 (8d0f1dd)
          11142410353D

104112  0     0  0            999 V2000
    0.9704    1.6328    0.9633 C   0  0  0  0  0  0  0  0  0  0  0  0
    0.9095    0.2023    1.0737 C   0  0  0  0  0  0  0  0  0  0  0  0
   -0.1780    2.4846    1.0570 C   0  0  0  0  0  0  0  0  0  0  0  0
    2.2307    2.2191    0.7361 C   0  0  0  0  0  0  0  0  0  0  0  0
    2.1025   -0.5345    1.2946 C   0  0  0  0  0  0  0  0  0  0  0  0
   -0.0627    3.8360    0.6381 C   0  0  0  0  0  0  0  0  0  0  0  0
    3.4080    1.4410    0.8706 C   0  0  0  0  0  0  0  0  0  0  0  0
    2.3203    3.5870    0.3720 C   0  0  0  0  0  0  0  0  0  0  0  0
    3.3511    0.1290    1.2183 C   0  0  0  0  0  0  0  0  0  0  0  0
    1.2053    4.3497    0.2591 C   0  0  0  0  0  0  0  0  0  0  0  0
   -0.2652   -0.5219    0.8415 C   0  0  0  0  0  0  0  0  0  0  0  0
   -1.4058    2.0812    1.6185 C   0  0  0  0  0  0  0  0  0  0  0  0
    2.0262   -1.9230    1.5132 C   0  0  0  0  0  0  0  0  0  0  0  0
   -1.1962    4.6660    0.6464 C   0  0  0  0  0  0  0  0  0  0  0  0
   -0.3114   -1.8954    1.0086 C   0  0  0  0  0  0  0  0  0  0  0  0
   -2.4935    2.9170    1.6327 C   0  0  0  0  0  0  0  0  0  0  0  0
    0.8389   -2.5942    1.4239 C   0  0  0  0  0  0  0  0  0  0  0  0
   -2.4029    4.2083    1.1094 C   0  0  0  0  0  0  0  0  0  0  0  0
    4.3602    1.9276    0.7190 H   0  0  0  0  0  0  0  0  0  0  0  0
    3.2961    3.9972    0.1582 H   0  0  0  0  0  0  0  0  0  0  0  0
    4.2525   -0.4433    1.3780 H   0  0  0  0  0  0  0  0  0  0  0  0
    1.2667    5.3755   -0.0726 H   0  0  0  0  0  0  0  0  0  0  0  0
   -1.1287   -0.0107    0.4532 H   0  0  0  0  0  0  0  0  0  0  0  0
   -1.4831    1.1199    2.0995 H   0  0  0  0  0  0  0  0  0  0  0  0
    2.9365   -2.4627    1.7256 H   0  0  0  0  0  0  0  0  0  0  0  0
   -1.0950    5.6821    0.2942 H   0  0  0  0  0  0  0  0  0  0  0  0
   -1.5083   -2.6174    0.6273 C   0  0  0  0  0  0  0  0  0  0  0  0
   -3.4221    2.5813    2.0694 H   0  0  0  0  0  0  0  0  0  0  0  0
    0.7913   -3.6578    1.5976 H   0  0  0  0  0  0  0  0  0  0  0  0
   -3.2702    4.8506    1.1078 H   0  0  0  0  0  0  0  0  0  0  0  0
   -2.8961   -4.4028    0.1690 C   0  0  0  0  0  0  0  0  0  0  0  0
   -3.4529   -3.1473   -0.5259 C   0  0  0  0  0  0  0  0  0  0  0  0
   -2.0012   -5.2443   -0.7548 C   0  0  0  0  0  0  0  0  0  0  0  0
   -3.8362   -3.2998   -1.9885 C   0  0  0  0  0  0  0  0  0  0  0  0
   -4.5842   -2.4700    0.2564 C   0  0  0  0  0  0  0  0  0  0  0  0
   -2.2967   -2.2396   -0.3916 N   0  0  0  0  0  0  0  0  0  0  0  0
   -2.1612   -1.2498   -1.1231 O   0  0  0  0  0  0  0  0  0  0  0  0
   -1.9539   -3.7835    1.1343 N   0  0  0  0  0  0  0  0  0  0  0  0
   -1.5415   -4.3867    2.1484 O   0  0  0  0  0  0  0  0  0  0  0  0
   -3.0028   -3.6489   -2.5906 H   0  0  0  0  0  0  0  0  0  0  0  0
   -4.1453   -2.3336   -2.3790 H   0  0  0  0  0  0  0  0  0  0  0  0
   -4.6640   -3.9963   -2.0839 H   0  0  0  0  0  0  0  0  0  0  0  0
   -4.3010   -2.3342    1.2987 H   0  0  0  0  0  0  0  0  0  0  0  0
   -5.5014   -3.0473    0.1883 H   0  0  0  0  0  0  0  0  0  0  0  0
   -4.7668   -1.4884   -0.1762 H   0  0  0  0  0  0  0  0  0  0  0  0
   -3.9152   -5.3102    0.8306 C   0  0  0  0  0  0  0  0  0  0  0  0
   -4.6316   -4.7525    1.4212 H   0  0  0  0  0  0  0  0  0  0  0  0
   -3.3995   -6.0266    1.4665 H   0  0  0  0  0  0  0  0  0  0  0  0
   -4.4546   -5.8623    0.0663 H   0  0  0  0  0  0  0  0  0  0  0  0
   -1.2642   -4.6294   -1.2676 H   0  0  0  0  0  0  0  0  0  0  0  0
   -2.6027   -5.7670   -1.4923 H   0  0  0  0  0  0  0  0  0  0  0  0
   -1.4728   -5.9865   -0.1591 H   0  0  0  0  0  0  0  0  0  0  0  0
    0.8762    1.4711    4.3084 C   0  0  0  0  0  0  0  0  0  0  0  0
    0.9912    0.0375    4.3671 C   0  0  0  0  0  0  0  0  0  0  0  0
   -0.3371    2.1944    4.5599 C   0  0  0  0  0  0  0  0  0  0  0  0
    2.0401    2.2134    4.0276 C   0  0  0  0  0  0  0  0  0  0  0  0
    2.2833   -0.5429    4.4894 C   0  0  0  0  0  0  0  0  0  0  0  0
   -0.4069    3.5672    4.2023 C   0  0  0  0  0  0  0  0  0  0  0  0
    3.3121    1.5917    4.0860 C   0  0  0  0  0  0  0  0  0  0  0  0
    1.9487    3.5941    3.7156 C   0  0  0  0  0  0  0  0  0  0  0  0
    3.4348    0.2751    4.3902 C   0  0  0  0  0  0  0  0  0  0  0  0
    0.7528    4.2303    3.7249 C   0  0  0  0  0  0  0  0  0  0  0  0
   -0.1026   -0.8338    4.2598 C   0  0  0  0  0  0  0  0  0  0  0  0
   -1.4382    1.6511    5.2514 C   0  0  0  0  0  0  0  0  0  0  0  0
    2.4120   -1.9331    4.6518 C   0  0  0  0  0  0  0  0  0  0  0  0
   -1.6047    4.2765    4.3869 C   0  0  0  0  0  0  0  0  0  0  0  0
    0.0416   -2.1991    4.4612 C   0  0  0  0  0  0  0  0  0  0  0  0
   -2.5885    2.3731    5.4452 C   0  0  0  0  0  0  0  0  0  0  0  0
    1.3179   -2.7504    4.6785 C   0  0  0  0  0  0  0  0  0  0  0  0
   -2.6926    3.6836    4.9728 C   0  0  0  0  0  0  0  0  0  0  0  0
    4.1860    2.2055    3.9267 H   0  0  0  0  0  0  0  0  0  0  0  0
    2.8549    4.1192    3.4540 H   0  0  0  0  0  0  0  0  0  0  0  0
    4.4056   -0.1815    4.5094 H   0  0  0  0  0  0  0  0  0  0  0  0
    0.6720    5.2684    3.4398 H   0  0  0  0  0  0  0  0  0  0  0  0
   -1.0756   -0.4455    4.0048 H   0  0  0  0  0  0  0  0  0  0  0  0
   -1.3508    0.6757    5.7041 H   0  0  0  0  0  0  0  0  0  0  0  0
    3.4015   -2.3505    4.7611 H   0  0  0  0  0  0  0  0  0  0  0  0
   -1.6421    5.3121    4.0835 H   0  0  0  0  0  0  0  0  0  0  0  0
   -1.1372   -3.0328    4.6270 C   0  0  0  0  0  0  0  0  0  0  0  0
   -3.4130    1.9365    5.9896 H   0  0  0  0  0  0  0  0  0  0  0  0
    1.4309   -3.8100    4.8328 H   0  0  0  0  0  0  0  0  0  0  0  0
   -3.6082    4.2365    5.1164 H   0  0  0  0  0  0  0  0  0  0  0  0
   -2.5299   -4.6111    5.6239 C   0  0  0  0  0  0  0  0  0  0  0  0
   -3.3726   -3.5372    4.9125 C   0  0  0  0  0  0  0  0  0  0  0  0
   -2.4009   -5.9199    4.8379 C   0  0  0  0  0  0  0  0  0  0  0  0
   -4.5577   -4.0472    4.1174 C   0  0  0  0  0  0  0  0  0  0  0  0
   -3.8392   -2.4177    5.8561 C   0  0  0  0  0  0  0  0  0  0  0  0
   -2.3501   -2.8910    4.0525 N   0  0  0  0  0  0  0  0  0  0  0  0
   -2.6694   -2.1377    3.1090 O   0  0  0  0  0  0  0  0  0  0  0  0
   -1.1964   -3.9827    5.5736 N   0  0  0  0  0  0  0  0  0  0  0  0
   -0.2870   -4.3469    6.3263 O   0  0  0  0  0  0  0  0  0  0  0  0
   -4.2675   -4.8576    3.4617 H   0  0  0  0  0  0  0  0  0  0  0  0
   -4.9731   -3.2336    3.5273 H   0  0  0  0  0  0  0  0  0  0  0  0
   -5.3256   -4.4042    4.7977 H   0  0  0  0  0  0  0  0  0  0  0  0
   -3.0178   -2.0315    6.4566 H   0  0  0  0  0  0  0  0  0  0  0  0
   -4.6225   -2.7790    6.5154 H   0  0  0  0  0  0  0  0  0  0  0  0
   -4.2424   -1.5996    5.2614 H   0  0  0  0  0  0  0  0  0  0  0  0
   -2.9042   -4.9079    7.0689 C   0  0  0  0  0  0  0  0  0  0  0  0
   -2.8650   -4.0189    7.6908 H   0  0  0  0  0  0  0  0  0  0  0  0
   -2.2009   -5.6290    7.4774 H   0  0  0  0  0  0  0  0  0  0  0  0
   -3.9029   -5.3319    7.1131 H   0  0  0  0  0  0  0  0  0  0  0  0
   -2.1115   -5.7225    3.8084 H   0  0  0  0  0  0  0  0  0  0  0  0
   -3.3324   -6.4770    4.8663 H   0  0  0  0  0  0  0  0  0  0  0  0
   -1.6257   -6.5269    5.3006 H   0  0  0  0  0  0  0  0  0  0  0  0
  1  2  1  0  0  0  0
  1  3  1  0  0  0  0
  1  4  2  0  0  0  0
  2  5  1  0  0  0  0
  2 11  2  0  0  0  0
  3  6  1  0  0  0  0
  3 12  2  0  0  0  0
  4  7  1  0  0  0  0
  4  8  1  0  0  0  0
  5  9  1  0  0  0  0
  5 13  2  0  0  0  0
  6 10  1  0  0  0  0
  6 14  2  0  0  0  0
  7  9  2  0  0  0  0
  7 19  1  0  0  0  0
  8 10  2  0  0  0  0
  8 20  1  0  0  0  0
  9 21  1  0  0  0  0
 10 22  1  0  0  0  0
 11 15  1  0  0  0  0
 11 23  1  0  0  0  0
 12 16  1  0  0  0  0
 12 24  1  0  0  0  0
 13 17  1  0  0  0  0
 13 25  1  0  0  0  0
 14 18  1  0  0  0  0
 14 26  1  0  0  0  0
 15 17  2  0  0  0  0
 15 27  1  0  0  0  0
 16 18  2  0  0  0  0
 16 28  1  0  0  0  0
 17 29  1  0  0  0  0
 18 30  1  0  0  0  0
 27 36  2  0  0  0  0
 27 38  1  0  0  0  0
 31 38  1  0  0  0  0
 31 32  1  0  0  0  0
 31 33  1  0  0  0  0
 31 46  1  0  0  0  0
 32 36  1  0  0  0  0
 32 34  1  0  0  0  0
 32 35  1  0  0  0  0
 33 50  1  0  0  0  0
 33 51  1  0  0  0  0
 33 52  1  0  0  0  0
 34 40  1  0  0  0  0
 34 41  1  0  0  0  0
 34 42  1  0  0  0  0
 35 43  1  0  0  0  0
 35 44  1  0  0  0  0
 35 45  1  0  0  0  0
 36 37  2  0  0  0  0
 38 39  1  0  0  0  0
 46 47  1  0  0  0  0
 46 48  1  0  0  0  0
 46 49  1  0  0  0  0
 53 54  1  0  0  0  0
 53 55  1  0  0  0  0
 53 56  2  0  0  0  0
 54 57  1  0  0  0  0
 54 63  2  0  0  0  0
 55 58  1  0  0  0  0
 55 64  2  0  0  0  0
 56 59  1  0  0  0  0
 56 60  1  0  0  0  0
 57 61  1  0  0  0  0
 57 65  2  0  0  0  0
 58 62  1  0  0  0  0
 58 66  2  0  0  0  0
 59 61  2  0  0  0  0
 59 71  1  0  0  0  0
 60 62  2  0  0  0  0
 60 72  1  0  0  0  0
 61 73  1  0  0  0  0
 62 74  1  0  0  0  0
 63 67  1  0  0  0  0
 63 75  1  0  0  0  0
 64 68  1  0  0  0  0
 64 76  1  0  0  0  0
 65 69  1  0  0  0  0
 65 77  1  0  0  0  0
 66 70  1  0  0  0  0
 66 78  1  0  0  0  0
 67 69  2  0  0  0  0
 67 79  1  0  0  0  0
 68 70  2  0  0  0  0
 68 80  1  0  0  0  0
 69 81  1  0  0  0  0
 70 82  1  0  0  0  0
 79 88  2  0  0  0  0
 79 90  1  0  0  0  0
 83 90  1  0  0  0  0
 83 84  1  0  0  0  0
 83 85  1  0  0  0  0
 83 98  1  0  0  0  0
 84 88  1  0  0  0  0
 84 86  1  0  0  0  0
 84 87  1  0  0  0  0
 85102  1  0  0  0  0
 85103  1  0  0  0  0
 85104  1  0  0  0  0
 86 92  1  0  0  0  0
 86 93  1  0  0  0  0
 86 94  1  0  0  0  0
 87 95  1  0  0  0  0
 87 96  1  0  0  0  0
 87 97  1  0  0  0  0
 88 89  2  0  0  0  0
 90 91  1  0  0  0  0
 98 99  1  0  0  0  0
 98100  1  0  0  0  0
 98101  1  0  0  0  0
M  CHG  1   1   1
M  END
