 energy: -23.095498055092 gnorm: 0.000681806168 xtb: 6.7.1 (edcfbbe)
          03042511563D

116124  0     0  0            999 V2000
   -2.3403    2.5728   -1.5155 C   0  0  0  0  0  0  0  0  0  0  0  0
   -2.0669    1.3569   -0.9034 C   0  0  0  0  0  0  0  0  0  0  0  0
   -1.2623    1.3590    0.2876 C   0  0  0  0  0  0  0  0  0  0  0  0
   -0.5027    2.5245    0.5940 C   0  0  0  0  0  0  0  0  0  0  0  0
   -0.8224    3.7210   -0.0672 C   0  0  0  0  0  0  0  0  0  0  0  0
   -1.7540    3.7539   -1.0793 C   0  0  0  0  0  0  0  0  0  0  0  0
   -1.1125    0.2295    1.1520 C   0  0  0  0  0  0  0  0  0  0  0  0
    0.0470    0.1874    1.9298 C   0  0  0  0  0  0  0  0  0  0  0  0
    0.8646    1.3480    2.0305 C   0  0  0  0  0  0  0  0  0  0  0  0
    0.5408    2.5224    1.4539 N   0  0  0  0  0  0  0  0  0  0  0  0
   -2.0274   -0.8562    1.3103 C   0  0  0  0  0  0  0  0  0  0  0  0
   -1.5359   -2.0577    1.8942 C   0  0  0  0  0  0  0  0  0  0  0  0
   -0.3400   -2.1409    2.5233 N   0  0  0  0  0  0  0  0  0  0  0  0
    0.3981   -1.0154    2.6062 C   0  0  0  0  0  0  0  0  0  0  0  0
    1.5814   -1.0256    3.3502 C   0  0  0  0  0  0  0  0  0  0  0  0
    2.3899    0.0925    3.4338 C   0  0  0  0  0  0  0  0  0  0  0  0
    2.0299    1.2641    2.7955 C   0  0  0  0  0  0  0  0  0  0  0  0
   -3.4289   -0.7345    1.0310 C   0  0  0  0  0  0  0  0  0  0  0  0
   -4.2108   -1.8802    1.0830 C   0  0  0  0  0  0  0  0  0  0  0  0
   -3.6895   -3.0965    1.5064 C   0  0  0  0  0  0  0  0  0  0  0  0
   -2.3832   -3.1752    1.9276 C   0  0  0  0  0  0  0  0  0  0  0  0
   -3.9477    0.5362    0.8185 O   0  0  0  0  0  0  0  0  0  0  0  0
   -2.5463    0.1898   -1.5279 O   0  0  0  0  0  0  0  0  0  0  0  0
   -2.0980    5.0372   -1.7335 C   0  0  0  0  0  0  0  0  0  0  0  0
   -4.5742   -4.2770    1.6000 C   0  0  0  0  0  0  0  0  0  0  0  0
   -0.3453    4.6340    0.2439 H   0  0  0  0  0  0  0  0  0  0  0  0
   -2.9841    2.5899   -2.3755 H   0  0  0  0  0  0  0  0  0  0  0  0
    2.6638    2.1271    2.8865 H   0  0  0  0  0  0  0  0  0  0  0  0
    1.8768   -1.9218    3.8648 H   0  0  0  0  0  0  0  0  0  0  0  0
   -2.0184   -4.0999    2.3358 H   0  0  0  0  0  0  0  0  0  0  0  0
   -5.2556   -1.8445    0.8395 H   0  0  0  0  0  0  0  0  0  0  0  0
   -1.9733    6.0773   -1.1160 O   0  0  0  0  0  0  0  0  0  0  0  0
   -2.5519    4.9625   -3.0191 O   0  0  0  0  0  0  0  0  0  0  0  0
   -2.7782    6.2441   -3.5082 C   0  0  0  0  0  0  0  0  0  0  0  0
    3.6505    0.0332    4.2008 C   0  0  0  0  0  0  0  0  0  0  0  0
    3.8983   -0.9442    4.8800 O   0  0  0  0  0  0  0  0  0  0  0  0
    4.4751    1.1158    4.0875 O   0  0  0  0  0  0  0  0  0  0  0  0
    5.5898    0.9344    4.8932 C   0  0  0  0  0  0  0  0  0  0  0  0
   -5.7230   -4.2023    1.2083 O   0  0  0  0  0  0  0  0  0  0  0  0
   -4.0277   -5.4006    2.1499 O   0  0  0  0  0  0  0  0  0  0  0  0
   -4.9874   -6.4054    2.1959 C   0  0  0  0  0  0  0  0  0  0  0  0
   -5.2974    0.5805    0.4327 C   0  0  0  0  0  0  0  0  0  0  0  0
   -1.5491   -0.7702   -1.8095 C   0  0  0  0  0  0  0  0  0  0  0  0
   -4.5488   -7.2986    2.6459 H   0  0  0  0  0  0  0  0  0  0  0  0
   -5.3228   -6.6187    1.1779 H   0  0  0  0  0  0  0  0  0  0  0  0
   -5.8330   -6.0565    2.7943 H   0  0  0  0  0  0  0  0  0  0  0  0
    6.2836    1.7637    4.7400 H   0  0  0  0  0  0  0  0  0  0  0  0
    6.0635   -0.0171    4.6381 H   0  0  0  0  0  0  0  0  0  0  0  0
    5.2495    0.9110    5.9296 H   0  0  0  0  0  0  0  0  0  0  0  0
   -2.0100   -1.5998   -2.3467 H   0  0  0  0  0  0  0  0  0  0  0  0
   -1.1043   -1.1408   -0.8875 H   0  0  0  0  0  0  0  0  0  0  0  0
   -0.7790   -0.3147   -2.4332 H   0  0  0  0  0  0  0  0  0  0  0  0
   -5.5570    1.6212    0.2337 H   0  0  0  0  0  0  0  0  0  0  0  0
   -5.9263    0.2030    1.2401 H   0  0  0  0  0  0  0  0  0  0  0  0
   -5.4340   -0.0029   -0.4793 H   0  0  0  0  0  0  0  0  0  0  0  0
   -3.1376    6.1754   -4.5372 H   0  0  0  0  0  0  0  0  0  0  0  0
   -1.8399    6.8036   -3.4732 H   0  0  0  0  0  0  0  0  0  0  0  0
   -3.5225    6.7375   -2.8788 H   0  0  0  0  0  0  0  0  0  0  0  0
   -2.7745    2.0757    3.9911 C   0  0  0  0  0  0  0  0  0  0  0  0
   -2.4500    1.0342    4.8542 C   0  0  0  0  0  0  0  0  0  0  0  0
   -1.2542    1.1380    5.6485 C   0  0  0  0  0  0  0  0  0  0  0  0
   -0.3126    2.1557    5.3183 C   0  0  0  0  0  0  0  0  0  0  0  0
   -0.6949    3.1605    4.4181 C   0  0  0  0  0  0  0  0  0  0  0  0
   -1.9156    3.1476    3.7899 C   0  0  0  0  0  0  0  0  0  0  0  0
   -0.8987    0.2351    6.7026 C   0  0  0  0  0  0  0  0  0  0  0  0
    0.4575    0.1792    7.0502 C   0  0  0  0  0  0  0  0  0  0  0  0
    1.3479    1.1919    6.5963 C   0  0  0  0  0  0  0  0  0  0  0  0
    0.9510    2.1996    5.7977 N   0  0  0  0  0  0  0  0  0  0  0  0
   -1.7722   -0.6094    7.4615 C   0  0  0  0  0  0  0  0  0  0  0  0
   -1.1928   -1.7149    8.1482 C   0  0  0  0  0  0  0  0  0  0  0  0
    0.1377   -1.8659    8.3283 N   0  0  0  0  0  0  0  0  0  0  0  0
    0.9321   -0.8723    7.8852 C   0  0  0  0  0  0  0  0  0  0  0  0
    2.2817   -0.8702    8.2496 C   0  0  0  0  0  0  0  0  0  0  0  0
    3.1392    0.1388    7.8550 C   0  0  0  0  0  0  0  0  0  0  0  0
    2.6738    1.1568    7.0417 C   0  0  0  0  0  0  0  0  0  0  0  0
   -3.1731   -0.3459    7.6355 C   0  0  0  0  0  0  0  0  0  0  0  0
   -3.9627   -1.3324    8.2143 C   0  0  0  0  0  0  0  0  0  0  0  0
   -3.4090   -2.4985    8.7281 C   0  0  0  0  0  0  0  0  0  0  0  0
   -2.0456   -2.6653    8.7265 C   0  0  0  0  0  0  0  0  0  0  0  0
   -3.6568    0.9101    7.2915 O   0  0  0  0  0  0  0  0  0  0  0  0
   -3.2978   -0.0896    4.8343 O   0  0  0  0  0  0  0  0  0  0  0  0
   -2.2565    4.2482    2.8616 C   0  0  0  0  0  0  0  0  0  0  0  0
   -4.2777   -3.5265    9.3410 C   0  0  0  0  0  0  0  0  0  0  0  0
   -0.0079    3.9574    4.1967 H   0  0  0  0  0  0  0  0  0  0  0  0
   -3.6808    2.0127    3.4174 H   0  0  0  0  0  0  0  0  0  0  0  0
    3.3435    1.9406    6.7407 H   0  0  0  0  0  0  0  0  0  0  0  0
    2.6607   -1.6564    8.8774 H   0  0  0  0  0  0  0  0  0  0  0  0
   -1.6222   -3.5323    9.2000 H   0  0  0  0  0  0  0  0  0  0  0  0
   -5.0235   -1.2015    8.3122 H   0  0  0  0  0  0  0  0  0  0  0  0
   -1.4459    5.1351    2.6729 O   0  0  0  0  0  0  0  0  0  0  0  0
   -3.4798    4.2039    2.2578 O   0  0  0  0  0  0  0  0  0  0  0  0
   -3.6377    5.3275    1.4530 C   0  0  0  0  0  0  0  0  0  0  0  0
    4.5404    0.1186    8.3343 C   0  0  0  0  0  0  0  0  0  0  0  0
    4.8931   -0.7521    9.1068 O   0  0  0  0  0  0  0  0  0  0  0  0
    5.3682    1.1049    7.8802 O   0  0  0  0  0  0  0  0  0  0  0  0
    6.6246    0.9516    8.4570 C   0  0  0  0  0  0  0  0  0  0  0  0
   -5.4827   -3.3663    9.3636 O   0  0  0  0  0  0  0  0  0  0  0  0
   -3.6425   -4.6207    9.8555 O   0  0  0  0  0  0  0  0  0  0  0  0
   -4.5801   -5.4897   10.4017 C   0  0  0  0  0  0  0  0  0  0  0  0
   -5.0565    1.0343    7.3002 C   0  0  0  0  0  0  0  0  0  0  0  0
   -2.6346   -1.3123    4.6190 C   0  0  0  0  0  0  0  0  0  0  0  0
   -4.0644   -6.3635   10.8056 H   0  0  0  0  0  0  0  0  0  0  0  0
   -5.2795   -5.7921    9.6185 H   0  0  0  0  0  0  0  0  0  0  0  0
   -5.1213   -4.9697   11.1959 H   0  0  0  0  0  0  0  0  0  0  0  0
    7.2873    1.7403    8.0949 H   0  0  0  0  0  0  0  0  0  0  0  0
    7.0204   -0.0305    8.1865 H   0  0  0  0  0  0  0  0  0  0  0  0
    6.5215    1.0156    9.5431 H   0  0  0  0  0  0  0  0  0  0  0  0
   -3.3042   -1.9725    4.0677 H   0  0  0  0  0  0  0  0  0  0  0  0
   -2.3708   -1.7787    5.5663 H   0  0  0  0  0  0  0  0  0  0  0  0
   -1.7388   -1.1196    4.0311 H   0  0  0  0  0  0  0  0  0  0  0  0
   -5.3113    2.0244    6.9202 H   0  0  0  0  0  0  0  0  0  0  0  0
   -5.4319    0.9346    8.3196 H   0  0  0  0  0  0  0  0  0  0  0  0
   -5.4915    0.2780    6.6448 H   0  0  0  0  0  0  0  0  0  0  0  0
   -4.5807    5.2514    0.9080 H   0  0  0  0  0  0  0  0  0  0  0  0
   -2.7994    5.3801    0.7533 H   0  0  0  0  0  0  0  0  0  0  0  0
   -3.6358    6.2177    2.0866 H   0  0  0  0  0  0  0  0  0  0  0  0
  1  6  2  0  0  0  0
  1  2  1  0  0  0  0
  2  3  2  0  0  0  0
  3  7  1  0  0  0  0
  4  3  1  0  0  0  0
  4 10  1  0  0  0  0
  5  4  2  0  0  0  0
  6  5  1  0  0  0  0
  7 11  2  0  0  0  0
  7  8  1  0  0  0  0
  8 14  1  0  0  0  0
  9  8  2  0  0  0  0
  9 17  1  0  0  0  0
 10  9  1  0  0  0  0
 11 12  1  0  0  0  0
 12 21  1  0  0  0  0
 12 13  2  0  0  0  0
 14 13  1  0  0  0  0
 14 15  2  0  0  0  0
 15 29  1  0  0  0  0
 16 15  1  0  0  0  0
 16 35  1  0  0  0  0
 17 16  2  0  0  0  0
 18 11  1  0  0  0  0
 18 19  2  0  0  0  0
 19 20  1  0  0  0  0
 20 21  2  0  0  0  0
 20 25  1  0  0  0  0
 21 30  1  0  0  0  0
 22 18  1  0  0  0  0
 23  2  1  0  0  0  0
 24  6  1  0  0  0  0
 25 40  1  0  0  0  0
 26  5  1  0  0  0  0
 27  1  1  0  0  0  0
 28 17  1  0  0  0  0
 31 19  1  0  0  0  0
 32 24  2  0  0  0  0
 33 34  1  0  0  0  0
 33 24  1  0  0  0  0
 34 57  1  0  0  0  0
 34 58  1  0  0  0  0
 35 36  2  0  0  0  0
 37 35  1  0  0  0  0
 38 37  1  0  0  0  0
 39 25  2  0  0  0  0
 41 44  1  0  0  0  0
 41 40  1  0  0  0  0
 42 54  1  0  0  0  0
 42 22  1  0  0  0  0
 43 23  1  0  0  0  0
 45 41  1  0  0  0  0
 46 41  1  0  0  0  0
 47 38  1  0  0  0  0
 48 38  1  0  0  0  0
 49 38  1  0  0  0  0
 50 43  1  0  0  0  0
 51 43  1  0  0  0  0
 52 43  1  0  0  0  0
 53 42  1  0  0  0  0
 55 42  1  0  0  0  0
 56 34  1  0  0  0  0
 59 64  2  0  0  0  0
 59 60  1  0  0  0  0
 60 61  2  0  0  0  0
 61 65  1  0  0  0  0
 62 61  1  0  0  0  0
 62 68  1  0  0  0  0
 63 62  2  0  0  0  0
 64 63  1  0  0  0  0
 65 69  2  0  0  0  0
 65 66  1  0  0  0  0
 66 72  1  0  0  0  0
 67 66  2  0  0  0  0
 67 75  1  0  0  0  0
 68 67  1  0  0  0  0
 69 70  1  0  0  0  0
 70 79  1  0  0  0  0
 70 71  2  0  0  0  0
 72 71  1  0  0  0  0
 72 73  2  0  0  0  0
 73 87  1  0  0  0  0
 74 73  1  0  0  0  0
 74 93  1  0  0  0  0
 75 74  2  0  0  0  0
 76 69  1  0  0  0  0
 76 77  2  0  0  0  0
 77 78  1  0  0  0  0
 78 79  2  0  0  0  0
 78 83  1  0  0  0  0
 79 88  1  0  0  0  0
 80 76  1  0  0  0  0
 81 60  1  0  0  0  0
 82 64  1  0  0  0  0
 83 98  1  0  0  0  0
 84 63  1  0  0  0  0
 85 59  1  0  0  0  0
 86 75  1  0  0  0  0
 89 77  1  0  0  0  0
 90 82  2  0  0  0  0
 91 92  1  0  0  0  0
 91 82  1  0  0  0  0
 92115  1  0  0  0  0
 92116  1  0  0  0  0
 93 94  2  0  0  0  0
 95 93  1  0  0  0  0
 96 95  1  0  0  0  0
 97 83  2  0  0  0  0
 99102  1  0  0  0  0
 99 98  1  0  0  0  0
100112  1  0  0  0  0
100 80  1  0  0  0  0
101 81  1  0  0  0  0
103 99  1  0  0  0  0
104 99  1  0  0  0  0
105 96  1  0  0  0  0
106 96  1  0  0  0  0
107 96  1  0  0  0  0
108101  1  0  0  0  0
109101  1  0  0  0  0
110101  1  0  0  0  0
111100  1  0  0  0  0
113100  1  0  0  0  0
114 92  1  0  0  0  0
M  END
