energy: -106.945974829757 gnorm: 0.000230954243 xtb: 6.7.1 (edcfbbe)_energy: -106.945974829757 gnorm: 0.000230954243 xtb: 6.7.1 (edcfbbe)
 OpenBabel03042511563D

116124  0  0  0  0  0  0  0  0999 V2000
   -2.5729    2.4709   -2.0927 C   0  0  0  0  0  0  0  0  0  0  0  0
   -2.2950    1.3183   -1.3915 C   0  0  0  0  0  0  0  0  0  0  0  0
   -1.2599    1.3095   -0.4283 C   0  0  0  0  0  0  0  0  0  0  0  0
   -0.3456    2.4142   -0.4094 C   0  0  0  0  0  0  0  0  0  0  0  0
   -0.6707    3.5863   -1.1257 C   0  0  0  0  0  0  0  0  0  0  0  0
   -1.7938    3.6278   -1.9170 C   0  0  0  0  0  0  0  0  0  0  0  0
   -0.9964    0.2501    0.4961 C   0  0  0  0  0  0  0  0  0  0  0  0
    0.3115    0.1602    0.9944 C   0  0  0  0  0  0  0  0  0  0  0  0
    1.2119    1.2530    0.8177 C   0  0  0  0  0  0  0  0  0  0  0  0
    0.8291    2.3804    0.2237 N   0  0  0  0  0  0  0  0  0  0  0  0
   -1.9259   -0.7316    0.9548 C   0  0  0  0  0  0  0  0  0  0  0  0
   -1.3743   -1.9345    1.5029 C   0  0  0  0  0  0  0  0  0  0  0  0
   -0.0826   -2.0689    1.8123 N   0  0  0  0  0  0  0  0  0  0  0  0
    0.7279   -1.0223    1.6766 C   0  0  0  0  0  0  0  0  0  0  0  0
    2.0533   -1.0915    2.1507 C   0  0  0  0  0  0  0  0  0  0  0  0
    2.9176   -0.0139    1.9931 C   0  0  0  0  0  0  0  0  0  0  0  0
    2.5141    1.1495    1.3491 C   0  0  0  0  0  0  0  0  0  0  0  0
   -3.3355   -0.5594    0.9582 C   0  0  0  0  0  0  0  0  0  0  0  0
   -4.1400   -1.6494    1.2227 C   0  0  0  0  0  0  0  0  0  0  0  0
   -3.5828   -2.8897    1.5828 C   0  0  0  0  0  0  0  0  0  0  0  0
   -2.2287   -3.0282    1.7654 C   0  0  0  0  0  0  0  0  0  0  0  0
   -3.7862    0.6998    0.7786 O   0  0  0  0  0  0  0  0  0  0  0  0
   -3.0421    0.1974   -1.6870 O   0  0  0  0  0  0  0  0  0  0  0  0
   -2.1113    4.8871   -2.6385 C   0  0  0  0  0  0  0  0  0  0  0  0
   -4.5313   -4.0075    1.8241 C   0  0  0  0  0  0  0  0  0  0  0  0
   -0.0079    4.4346   -1.0657 H   0  0  0  0  0  0  0  0  0  0  0  0
   -3.3885    2.4718   -2.7977 H   0  0  0  0  0  0  0  0  0  0  0  0
    3.1843    1.9856    1.2392 H   0  0  0  0  0  0  0  0  0  0  0  0
    2.3920   -1.9868    2.6474 H   0  0  0  0  0  0  0  0  0  0  0  0
   -1.7954   -3.9412    2.1361 H   0  0  0  0  0  0  0  0  0  0  0  0
   -5.2153   -1.5877    1.1792 H   0  0  0  0  0  0  0  0  0  0  0  0
   -1.4422    5.8885   -2.5861 O   0  0  0  0  0  0  0  0  0  0  0  0
   -3.2377    4.7946   -3.3605 O   0  0  0  0  0  0  0  0  0  0  0  0
   -3.6098    5.9635   -4.0750 C   0  0  0  0  0  0  0  0  0  0  0  0
    4.2960   -0.1528    2.5415 C   0  0  0  0  0  0  0  0  0  0  0  0
    4.7063   -1.1402    3.0983 O   0  0  0  0  0  0  0  0  0  0  0  0
    5.0367    0.9450    2.3494 O   0  0  0  0  0  0  0  0  0  0  0  0
    6.3655    0.8897    2.8468 C   0  0  0  0  0  0  0  0  0  0  0  0
   -5.7300   -3.9136    1.7148 O   0  0  0  0  0  0  0  0  0  0  0  0
   -3.9124   -5.1407    2.1745 O   0  0  0  0  0  0  0  0  0  0  0  0
   -4.7551   -6.2552    2.4252 C   0  0  0  0  0  0  0  0  0  0  0  0
   -5.1743    0.9158    0.6769 C   0  0  0  0  0  0  0  0  0  0  0  0
   -2.3225   -0.8756   -2.2577 C   0  0  0  0  0  0  0  0  0  0  0  0
   -4.1004   -7.0704    2.7219 H   0  0  0  0  0  0  0  0  0  0  0  0
   -5.3135   -6.5193    1.5246 H   0  0  0  0  0  0  0  0  0  0  0  0
   -5.4655   -6.0226    3.2214 H   0  0  0  0  0  0  0  0  0  0  0  0
    6.8156    1.8522    2.6184 H   0  0  0  0  0  0  0  0  0  0  0  0
    6.9181    0.0818    2.3629 H   0  0  0  0  0  0  0  0  0  0  0  0
    6.3601    0.7131    3.9244 H   0  0  0  0  0  0  0  0  0  0  0  0
   -3.0415   -1.6825   -2.3866 H   0  0  0  0  0  0  0  0  0  0  0  0
   -1.5063   -1.2218   -1.6166 H   0  0  0  0  0  0  0  0  0  0  0  0
   -1.9125   -0.5916   -3.2335 H   0  0  0  0  0  0  0  0  0  0  0  0
   -5.2894    1.9838    0.5007 H   0  0  0  0  0  0  0  0  0  0  0  0
   -5.6915    0.6397    1.6008 H   0  0  0  0  0  0  0  0  0  0  0  0
   -5.5966    0.3605   -0.1646 H   0  0  0  0  0  0  0  0  0  0  0  0
   -4.5220    5.7151   -4.6113 H   0  0  0  0  0  0  0  0  0  0  0  0
   -2.8192    6.2500   -4.7717 H   0  0  0  0  0  0  0  0  0  0  0  0
   -3.7831    6.7911   -3.3842 H   0  0  0  0  0  0  0  0  0  0  0  0
   -2.5729    2.4709    4.9073 C   0  0  0  0  0  0  0  0  0  0  0  0
   -2.2950    1.3183    5.6085 C   0  0  0  0  0  0  0  0  0  0  0  0
   -1.2599    1.3095    6.5717 C   0  0  0  0  0  0  0  0  0  0  0  0
   -0.3456    2.4142    6.5906 C   0  0  0  0  0  0  0  0  0  0  0  0
   -0.6707    3.5863    5.8743 C   0  0  0  0  0  0  0  0  0  0  0  0
   -1.7938    3.6278    5.0830 C   0  0  0  0  0  0  0  0  0  0  0  0
   -0.9964    0.2501    7.4961 C   0  0  0  0  0  0  0  0  0  0  0  0
    0.3115    0.1602    7.9944 C   0  0  0  0  0  0  0  0  0  0  0  0
    1.2119    1.2530    7.8177 C   0  0  0  0  0  0  0  0  0  0  0  0
    0.8291    2.3804    7.2237 N   0  0  0  0  0  0  0  0  0  0  0  0
   -1.9259   -0.7316    7.9548 C   0  0  0  0  0  0  0  0  0  0  0  0
   -1.3743   -1.9345    8.5029 C   0  0  0  0  0  0  0  0  0  0  0  0
   -0.0826   -2.0689    8.8123 N   0  0  0  0  0  0  0  0  0  0  0  0
    0.7279   -1.0223    8.6766 C   0  0  0  0  0  0  0  0  0  0  0  0
    2.0533   -1.0915    9.1507 C   0  0  0  0  0  0  0  0  0  0  0  0
    2.9176   -0.0139    8.9931 C   0  0  0  0  0  0  0  0  0  0  0  0
    2.5141    1.1495    8.3491 C   0  0  0  0  0  0  0  0  0  0  0  0
   -3.3355   -0.5594    7.9582 C   0  0  0  0  0  0  0  0  0  0  0  0
   -4.1400   -1.6494    8.2227 C   0  0  0  0  0  0  0  0  0  0  0  0
   -3.5828   -2.8897    8.5828 C   0  0  0  0  0  0  0  0  0  0  0  0
   -2.2287   -3.0282    8.7654 C   0  0  0  0  0  0  0  0  0  0  0  0
   -3.7862    0.6998    7.7786 O   0  0  0  0  0  0  0  0  0  0  0  0
   -3.0421    0.1974    5.3130 O   0  0  0  0  0  0  0  0  0  0  0  0
   -2.1113    4.8871    4.3615 C   0  0  0  0  0  0  0  0  0  0  0  0
   -4.5313   -4.0075    8.8241 C   0  0  0  0  0  0  0  0  0  0  0  0
   -0.0079    4.4346    5.9343 H   0  0  0  0  0  0  0  0  0  0  0  0
   -3.3885    2.4718    4.2023 H   0  0  0  0  0  0  0  0  0  0  0  0
    3.1843    1.9856    8.2392 H   0  0  0  0  0  0  0  0  0  0  0  0
    2.3920   -1.9868    9.6474 H   0  0  0  0  0  0  0  0  0  0  0  0
   -1.7954   -3.9412    9.1361 H   0  0  0  0  0  0  0  0  0  0  0  0
   -5.2153   -1.5877    8.1792 H   0  0  0  0  0  0  0  0  0  0  0  0
   -1.4422    5.8885    4.4139 O   0  0  0  0  0  0  0  0  0  0  0  0
   -3.2377    4.7946    3.6395 O   0  0  0  0  0  0  0  0  0  0  0  0
   -3.6098    5.9635    2.9250 C   0  0  0  0  0  0  0  0  0  0  0  0
    4.2960   -0.1528    9.5415 C   0  0  0  0  0  0  0  0  0  0  0  0
    4.7063   -1.1402   10.0983 O   0  0  0  0  0  0  0  0  0  0  0  0
    5.0367    0.9450    9.3494 O   0  0  0  0  0  0  0  0  0  0  0  0
    6.3655    0.8897    9.8468 C   0  0  0  0  0  0  0  0  0  0  0  0
   -5.7300   -3.9136    8.7148 O   0  0  0  0  0  0  0  0  0  0  0  0
   -3.9124   -5.1407    9.1745 O   0  0  0  0  0  0  0  0  0  0  0  0
   -4.7551   -6.2552    9.4252 C   0  0  0  0  0  0  0  0  0  0  0  0
   -5.1743    0.9158    7.6769 C   0  0  0  0  0  0  0  0  0  0  0  0
   -2.3225   -0.8756    4.7423 C   0  0  0  0  0  0  0  0  0  0  0  0
   -4.1004   -7.0704    9.7219 H   0  0  0  0  0  0  0  0  0  0  0  0
   -5.3135   -6.5193    8.5246 H   0  0  0  0  0  0  0  0  0  0  0  0
   -5.4655   -6.0226   10.2214 H   0  0  0  0  0  0  0  0  0  0  0  0
    6.8156    1.8522    9.6184 H   0  0  0  0  0  0  0  0  0  0  0  0
    6.9181    0.0818    9.3629 H   0  0  0  0  0  0  0  0  0  0  0  0
    6.3601    0.7131   10.9244 H   0  0  0  0  0  0  0  0  0  0  0  0
   -3.0415   -1.6825    4.6134 H   0  0  0  0  0  0  0  0  0  0  0  0
   -1.5063   -1.2218    5.3834 H   0  0  0  0  0  0  0  0  0  0  0  0
   -1.9125   -0.5916    3.7665 H   0  0  0  0  0  0  0  0  0  0  0  0
   -5.2894    1.9838    7.5007 H   0  0  0  0  0  0  0  0  0  0  0  0
   -5.6915    0.6397    8.6008 H   0  0  0  0  0  0  0  0  0  0  0  0
   -5.5966    0.3605    6.8354 H   0  0  0  0  0  0  0  0  0  0  0  0
   -4.5220    5.7151    2.3887 H   0  0  0  0  0  0  0  0  0  0  0  0
   -2.8192    6.2500    2.2283 H   0  0  0  0  0  0  0  0  0  0  0  0
   -3.7831    6.7911    3.6158 H   0  0  0  0  0  0  0  0  0  0  0  0
  1  6  2  0  0  0  0
  1  2  1  0  0  0  0
  2  3  2  0  0  0  0
  3  7  1  0  0  0  0
  4  3  1  0  0  0  0
  4 10  1  0  0  0  0
  5  4  2  0  0  0  0
  6  5  1  0  0  0  0
  7 11  2  0  0  0  0
  7  8  1  0  0  0  0
  8 14  1  0  0  0  0
  9  8  2  0  0  0  0
  9 17  1  0  0  0  0
 10  9  1  0  0  0  0
 11 12  1  0  0  0  0
 12 21  1  0  0  0  0
 12 13  2  0  0  0  0
 14 13  1  0  0  0  0
 14 15  2  0  0  0  0
 15 29  1  0  0  0  0
 16 15  1  0  0  0  0
 16 35  1  0  0  0  0
 17 16  2  0  0  0  0
 18 11  1  0  0  0  0
 18 19  2  0  0  0  0
 19 20  1  0  0  0  0
 20 21  2  0  0  0  0
 20 25  1  0  0  0  0
 21 30  1  0  0  0  0
 22 18  1  0  0  0  0
 23  2  1  0  0  0  0
 24  6  1  0  0  0  0
 25 40  1  0  0  0  0
 26  5  1  0  0  0  0
 27  1  1  0  0  0  0
 28 17  1  0  0  0  0
 31 19  1  0  0  0  0
 32 24  2  0  0  0  0
 33 34  1  0  0  0  0
 33 24  1  0  0  0  0
 34 57  1  0  0  0  0
 34 58  1  0  0  0  0
 35 36  2  0  0  0  0
 37 35  1  0  0  0  0
 38 37  1  0  0  0  0
 39 25  2  0  0  0  0
 41 44  1  0  0  0  0
 41 40  1  0  0  0  0
 42 54  1  0  0  0  0
 42 22  1  0  0  0  0
 43 23  1  0  0  0  0
 45 41  1  0  0  0  0
 46 41  1  0  0  0  0
 47 38  1  0  0  0  0
 48 38  1  0  0  0  0
 49 38  1  0  0  0  0
 50 43  1  0  0  0  0
 51 43  1  0  0  0  0
 52 43  1  0  0  0  0
 53 42  1  0  0  0  0
 55 42  1  0  0  0  0
 56 34  1  0  0  0  0
 59 64  2  0  0  0  0
 59 60  1  0  0  0  0
 60 61  2  0  0  0  0
 61 65  1  0  0  0  0
 62 61  1  0  0  0  0
 62 68  1  0  0  0  0
 63 62  2  0  0  0  0
 64 63  1  0  0  0  0
 65 69  2  0  0  0  0
 65 66  1  0  0  0  0
 66 72  1  0  0  0  0
 67 66  2  0  0  0  0
 67 75  1  0  0  0  0
 68 67  1  0  0  0  0
 69 70  1  0  0  0  0
 70 79  1  0  0  0  0
 70 71  2  0  0  0  0
 72 71  1  0  0  0  0
 72 73  2  0  0  0  0
 73 87  1  0  0  0  0
 74 73  1  0  0  0  0
 74 93  1  0  0  0  0
 75 74  2  0  0  0  0
 76 69  1  0  0  0  0
 76 77  2  0  0  0  0
 77 78  1  0  0  0  0
 78 79  2  0  0  0  0
 78 83  1  0  0  0  0
 79 88  1  0  0  0  0
 80 76  1  0  0  0  0
 81 60  1  0  0  0  0
 82 64  1  0  0  0  0
 83 98  1  0  0  0  0
 84 63  1  0  0  0  0
 85 59  1  0  0  0  0
 86 75  1  0  0  0  0
 89 77  1  0  0  0  0
 90 82  2  0  0  0  0
 91 92  1  0  0  0  0
 91 82  1  0  0  0  0
 92115  1  0  0  0  0
 92116  1  0  0  0  0
 93 94  2  0  0  0  0
 95 93  1  0  0  0  0
 96 95  1  0  0  0  0
 97 83  2  0  0  0  0
 99102  1  0  0  0  0
 99 98  1  0  0  0  0
100112  1  0  0  0  0
100 80  1  0  0  0  0
101 81  1  0  0  0  0
103 99  1  0  0  0  0
104 99  1  0  0  0  0
105 96  1  0  0  0  0
106 96  1  0  0  0  0
107 96  1  0  0  0  0
108101  1  0  0  0  0
109101  1  0  0  0  0
110101  1  0  0  0  0
111100  1  0  0  0  0
113100  1  0  0  0  0
114 92  1  0  0  0  0
M  END
