 energy: -213.710745606595 gnorm: 0.163543308552 xtb: 6.7.1 (edcfbbe)
          03042511543D

116124  0     0  0            999 V2000
   -2.9059    2.8516   -2.4930 C   0  0  0  0  0  0  0  0  0  0  0  0
   -2.4365    1.6377   -2.0083 C   0  0  0  0  0  0  0  0  0  0  0  0
   -1.4872    1.6572   -0.9292 C   0  0  0  0  0  0  0  0  0  0  0  0
   -0.8035    2.8757   -0.6482 C   0  0  0  0  0  0  0  0  0  0  0  0
   -1.3163    4.0672   -1.1845 C   0  0  0  0  0  0  0  0  0  0  0  0
   -2.3791    4.0611   -2.0583 C   0  0  0  0  0  0  0  0  0  0  0  0
   -1.1281    0.5076   -0.1574 C   0  0  0  0  0  0  0  0  0  0  0  0
    0.1247    0.5418    0.4613 C   0  0  0  0  0  0  0  0  0  0  0  0
    0.8453    1.7684    0.5214 C   0  0  0  0  0  0  0  0  0  0  0  0
    0.3409    2.9333    0.0693 N   0  0  0  0  0  0  0  0  0  0  0  0
   -1.9133   -0.6678    0.0514 C   0  0  0  0  0  0  0  0  0  0  0  0
   -1.2442   -1.8346    0.5196 C   0  0  0  0  0  0  0  0  0  0  0  0
    0.0281   -1.8337    0.9768 N   0  0  0  0  0  0  0  0  0  0  0  0
    0.6723   -0.6516    1.0109 C   0  0  0  0  0  0  0  0  0  0  0  0
    1.9536   -0.5907    1.5643 C   0  0  0  0  0  0  0  0  0  0  0  0
    2.6659    0.5927    1.6054 C   0  0  0  0  0  0  0  0  0  0  0  0
    2.1117    1.7583    1.1116 C   0  0  0  0  0  0  0  0  0  0  0  0
   -3.3444   -0.6814   -0.0626 C   0  0  0  0  0  0  0  0  0  0  0  0
   -3.9976   -1.9046    0.0285 C   0  0  0  0  0  0  0  0  0  0  0  0
   -3.3153   -3.0744    0.3386 C   0  0  0  0  0  0  0  0  0  0  0  0
   -1.9685   -3.0317    0.6047 C   0  0  0  0  0  0  0  0  0  0  0  0
   -4.0151    0.5317   -0.1617 O   0  0  0  0  0  0  0  0  0  0  0  0
   -2.8810    0.4656   -2.6476 O   0  0  0  0  0  0  0  0  0  0  0  0
   -2.9303    5.3351   -2.5707 C   0  0  0  0  0  0  0  0  0  0  0  0
   -4.0573   -4.3446    0.4859 C   0  0  0  0  0  0  0  0  0  0  0  0
   -0.8788    5.0048   -0.8893 H   0  0  0  0  0  0  0  0  0  0  0  0
   -3.6615    2.8499   -3.2567 H   0  0  0  0  0  0  0  0  0  0  0  0
    2.6692    2.6745    1.1791 H   0  0  0  0  0  0  0  0  0  0  0  0
    2.4003   -1.4816    1.9673 H   0  0  0  0  0  0  0  0  0  0  0  0
   -1.4686   -3.9261    0.9293 H   0  0  0  0  0  0  0  0  0  0  0  0
   -5.0622   -1.9709   -0.0911 H   0  0  0  0  0  0  0  0  0  0  0  0
   -2.6694    6.3770   -2.0005 O   0  0  0  0  0  0  0  0  0  0  0  0
   -3.7304    5.2505   -3.6738 O   0  0  0  0  0  0  0  0  0  0  0  0
   -4.1445    6.5240   -4.0467 C   0  0  0  0  0  0  0  0  0  0  0  0
    4.0195    0.6051    2.1942 C   0  0  0  0  0  0  0  0  0  0  0  0
    4.5029   -0.4328    2.6039 O   0  0  0  0  0  0  0  0  0  0  0  0
    4.6473    1.8158    2.2575 O   0  0  0  0  0  0  0  0  0  0  0  0
    5.8631    1.6602    2.9082 C   0  0  0  0  0  0  0  0  0  0  0  0
   -5.2466   -4.3831    0.2364 O   0  0  0  0  0  0  0  0  0  0  0  0
   -3.3327   -5.4183    0.9180 O   0  0  0  0  0  0  0  0  0  0  0  0
   -4.1680   -6.5225    1.0418 C   0  0  0  0  0  0  0  0  0  0  0  0
   -5.4111    0.4302   -0.2870 C   0  0  0  0  0  0  0  0  0  0  0  0
   -1.8442   -0.3848   -3.0911 C   0  0  0  0  0  0  0  0  0  0  0  0
   -3.5828   -7.3749    1.3938 H   0  0  0  0  0  0  0  0  0  0  0  0
   -4.6090   -6.7418    0.0662 H   0  0  0  0  0  0  0  0  0  0  0  0
   -4.9594   -6.2857    1.7575 H   0  0  0  0  0  0  0  0  0  0  0  0
    6.3329    2.6382    3.0340 H   0  0  0  0  0  0  0  0  0  0  0  0
    6.5002    1.0002    2.3142 H   0  0  0  0  0  0  0  0  0  0  0  0
    5.6623    1.2021    3.8800 H   0  0  0  0  0  0  0  0  0  0  0  0
   -2.2901   -1.2174   -3.6361 H   0  0  0  0  0  0  0  0  0  0  0  0
   -1.2780   -0.7711   -2.2453 H   0  0  0  0  0  0  0  0  0  0  0  0
   -1.1820    0.1727   -3.7544 H   0  0  0  0  0  0  0  0  0  0  0  0
   -5.8225    1.4347   -0.3924 H   0  0  0  0  0  0  0  0  0  0  0  0
   -5.8273   -0.0335    0.6088 H   0  0  0  0  0  0  0  0  0  0  0  0
   -5.6554   -0.1477   -1.1796 H   0  0  0  0  0  0  0  0  0  0  0  0
   -4.7621    6.4501   -4.9443 H   0  0  0  0  0  0  0  0  0  0  0  0
   -3.2613    7.1364   -4.2451 H   0  0  0  0  0  0  0  0  0  0  0  0
   -4.7184    6.9637   -3.2276 H   0  0  0  0  0  0  0  0  0  0  0  0
   -2.9008    2.1911    2.8501 C   0  0  0  0  0  0  0  0  0  0  0  0
   -2.5228    1.0251    3.5043 C   0  0  0  0  0  0  0  0  0  0  0  0
   -1.2440    0.9893    4.1619 C   0  0  0  0  0  0  0  0  0  0  0  0
   -0.3017    2.0181    3.8723 C   0  0  0  0  0  0  0  0  0  0  0  0
   -0.7369    3.1452    3.1592 C   0  0  0  0  0  0  0  0  0  0  0  0
   -2.0205    3.2508    2.6815 C   0  0  0  0  0  0  0  0  0  0  0  0
   -0.8172   -0.0661    5.0281 C   0  0  0  0  0  0  0  0  0  0  0  0
    0.5625   -0.2134    5.2087 C   0  0  0  0  0  0  0  0  0  0  0  0
    1.4425    0.8323    4.8131 C   0  0  0  0  0  0  0  0  0  0  0  0
    1.0064    1.9567    4.2133 N   0  0  0  0  0  0  0  0  0  0  0  0
   -1.6447   -1.0009    5.7281 C   0  0  0  0  0  0  0  0  0  0  0  0
   -1.0519   -2.2275    6.1428 C   0  0  0  0  0  0  0  0  0  0  0  0
    0.2835   -2.4364    6.1602 N   0  0  0  0  0  0  0  0  0  0  0  0
    1.0715   -1.4001    5.8090 C   0  0  0  0  0  0  0  0  0  0  0  0
    2.4506   -1.4914    6.0168 C   0  0  0  0  0  0  0  0  0  0  0  0
    3.3060   -0.4554    5.6911 C   0  0  0  0  0  0  0  0  0  0  0  0
    2.8053    0.6900    5.0979 C   0  0  0  0  0  0  0  0  0  0  0  0
   -3.0082   -0.7305    6.0891 C   0  0  0  0  0  0  0  0  0  0  0  0
   -3.7879   -1.7878    6.5405 C   0  0  0  0  0  0  0  0  0  0  0  0
   -3.2460   -3.0494    6.7551 C   0  0  0  0  0  0  0  0  0  0  0  0
   -1.8945   -3.2499    6.6020 C   0  0  0  0  0  0  0  0  0  0  0  0
   -3.4584    0.5825    6.0299 O   0  0  0  0  0  0  0  0  0  0  0  0
   -3.4126   -0.0613    3.4106 O   0  0  0  0  0  0  0  0  0  0  0  0
   -2.4187    4.4570    1.9233 C   0  0  0  0  0  0  0  0  0  0  0  0
   -4.1177   -4.1599    7.1950 C   0  0  0  0  0  0  0  0  0  0  0  0
   -0.0441    3.9437    2.9631 H   0  0  0  0  0  0  0  0  0  0  0  0
   -3.8813    2.2413    2.4157 H   0  0  0  0  0  0  0  0  0  0  0  0
    3.4777    1.4861    4.8382 H   0  0  0  0  0  0  0  0  0  0  0  0
    2.8591   -2.3784    6.4660 H   0  0  0  0  0  0  0  0  0  0  0  0
   -1.4739   -4.2080    6.8469 H   0  0  0  0  0  0  0  0  0  0  0  0
   -4.8303   -1.6501    6.7565 H   0  0  0  0  0  0  0  0  0  0  0  0
   -1.6217    5.3652    1.7854 O   0  0  0  0  0  0  0  0  0  0  0  0
   -3.6794    4.4706    1.3982 O   0  0  0  0  0  0  0  0  0  0  0  0
   -3.8918    5.6788    0.7424 C   0  0  0  0  0  0  0  0  0  0  0  0
    4.7467   -0.5931    6.0078 C   0  0  0  0  0  0  0  0  0  0  0  0
    5.1441   -1.6287    6.5069 O   0  0  0  0  0  0  0  0  0  0  0  0
    5.5568    0.4729    5.7399 O   0  0  0  0  0  0  0  0  0  0  0  0
    6.8595    0.1561    6.1104 C   0  0  0  0  0  0  0  0  0  0  0  0
   -5.3018   -3.9595    7.3853 O   0  0  0  0  0  0  0  0  0  0  0  0
   -3.5145   -5.3746    7.3534 O   0  0  0  0  0  0  0  0  0  0  0  0
   -4.4600   -6.3131    7.7508 C   0  0  0  0  0  0  0  0  0  0  0  0
   -4.8453    0.7453    6.1868 C   0  0  0  0  0  0  0  0  0  0  0  0
   -2.8164   -1.2601    3.0534 C   0  0  0  0  0  0  0  0  0  0  0  0
   -3.9714   -7.2813    7.8784 H   0  0  0  0  0  0  0  0  0  0  0  0
   -5.2350   -6.3792    6.9833 H   0  0  0  0  0  0  0  0  0  0  0  0
   -4.9056   -5.9867    8.6936 H   0  0  0  0  0  0  0  0  0  0  0  0
    7.5115    1.0103    5.9170 H   0  0  0  0  0  0  0  0  0  0  0  0
    7.1869   -0.7108    5.5303 H   0  0  0  0  0  0  0  0  0  0  0  0
    6.8706   -0.0932    7.1745 H   0  0  0  0  0  0  0  0  0  0  0  0
   -2.9318   -1.9827    3.8363 H   0  0  0  0  0  0  0  0  0  0  0  0
   -1.7816   -1.1099    2.8148 H   0  0  0  0  0  0  0  0  0  0  0  0
   -3.7461    2.6599    0.2447 H   0  0  0  0  0  0  0  0  0  0  0  0
   -5.0835    1.7977    6.0278 H   0  0  0  0  0  0  0  0  0  0  0  0
   -5.1412    0.4600    7.1972 H   0  0  0  0  0  0  0  0  0  0  0  0
   -5.3668    0.1446    5.4397 H   0  0  0  0  0  0  0  0  0  0  0  0
   -4.9035    5.6962    0.3324 H   0  0  0  0  0  0  0  0  0  0  0  0
   -3.1574    5.7727   -0.0611 H   0  0  0  0  0  0  0  0  0  0  0  0
   -3.7572    6.4962    1.4552 H   0  0  0  0  0  0  0  0  0  0  0  0
  1  6  2  0  0  0  0
  1  2  1  0  0  0  0
  2  3  2  0  0  0  0
  3  7  1  0  0  0  0
  4  3  1  0  0  0  0
  4 10  1  0  0  0  0
  5  4  2  0  0  0  0
  6  5  1  0  0  0  0
  7 11  2  0  0  0  0
  7  8  1  0  0  0  0
  8 14  1  0  0  0  0
  9  8  2  0  0  0  0
  9 17  1  0  0  0  0
 10  9  1  0  0  0  0
 11 12  1  0  0  0  0
 12 21  1  0  0  0  0
 12 13  2  0  0  0  0
 14 13  1  0  0  0  0
 14 15  2  0  0  0  0
 15 29  1  0  0  0  0
 16 15  1  0  0  0  0
 16 35  1  0  0  0  0
 17 16  2  0  0  0  0
 18 11  1  0  0  0  0
 18 19  2  0  0  0  0
 19 20  1  0  0  0  0
 20 21  2  0  0  0  0
 20 25  1  0  0  0  0
 21 30  1  0  0  0  0
 22 18  1  0  0  0  0
 23  2  1  0  0  0  0
 24  6  1  0  0  0  0
 25 40  1  0  0  0  0
 26  5  1  0  0  0  0
 27  1  1  0  0  0  0
 28 17  1  0  0  0  0
 31 19  1  0  0  0  0
 32 24  2  0  0  0  0
 33 34  1  0  0  0  0
 33 24  1  0  0  0  0
 34 57  1  0  0  0  0
 34 58  1  0  0  0  0
 35 36  2  0  0  0  0
 37 35  1  0  0  0  0
 38 37  1  0  0  0  0
 39 25  2  0  0  0  0
 41 44  1  0  0  0  0
 41 40  1  0  0  0  0
 42 54  1  0  0  0  0
 42 22  1  0  0  0  0
 43 23  1  0  0  0  0
 45 41  1  0  0  0  0
 46 41  1  0  0  0  0
 47 38  1  0  0  0  0
 48 38  1  0  0  0  0
 49 38  1  0  0  0  0
 50 43  1  0  0  0  0
 51 43  1  0  0  0  0
 52 43  1  0  0  0  0
 53 42  1  0  0  0  0
 55 42  1  0  0  0  0
 56 34  1  0  0  0  0
 59 64  2  0  0  0  0
 59 60  1  0  0  0  0
 60 61  2  0  0  0  0
 61 65  1  0  0  0  0
 62 61  1  0  0  0  0
 62 68  1  0  0  0  0
 63 62  2  0  0  0  0
 64 63  1  0  0  0  0
 65 69  2  0  0  0  0
 65 66  1  0  0  0  0
 66 72  1  0  0  0  0
 67 66  2  0  0  0  0
 67 75  1  0  0  0  0
 68 67  1  0  0  0  0
 69 70  1  0  0  0  0
 70 79  1  0  0  0  0
 70 71  2  0  0  0  0
 72 71  1  0  0  0  0
 72 73  2  0  0  0  0
 73 87  1  0  0  0  0
 74 73  1  0  0  0  0
 74 93  1  0  0  0  0
 75 74  2  0  0  0  0
 76 69  1  0  0  0  0
 76 77  2  0  0  0  0
 77 78  1  0  0  0  0
 78 79  2  0  0  0  0
 78 83  1  0  0  0  0
 79 88  1  0  0  0  0
 80 76  1  0  0  0  0
 81 60  1  0  0  0  0
 82 64  1  0  0  0  0
 83 98  1  0  0  0  0
 84 63  1  0  0  0  0
 85 59  1  0  0  0  0
 86 75  1  0  0  0  0
 89 77  1  0  0  0  0
 90 82  2  0  0  0  0
 91 92  1  0  0  0  0
 91 82  1  0  0  0  0
 92115  1  0  0  0  0
 92116  1  0  0  0  0
 93 94  2  0  0  0  0
 95 93  1  0  0  0  0
 96 95  1  0  0  0  0
 97 83  2  0  0  0  0
 99102  1  0  0  0  0
 99 98  1  0  0  0  0
100112  1  0  0  0  0
100 80  1  0  0  0  0
101 81  1  0  0  0  0
103 99  1  0  0  0  0
104 99  1  0  0  0  0
105 96  1  0  0  0  0
106 96  1  0  0  0  0
107 96  1  0  0  0  0
108101  1  0  0  0  0
109101  1  0  0  0  0
110101  1  0  0  0  0
111100  1  0  0  0  0
113100  1  0  0  0  0
114 92  1  0  0  0  0
M  END
