 energy: -93.360483854211 gnorm: 0.000109462567 xtb: 6.7.1 (edcfbbe)
          03102510463D

 68 73  0     0  0            999 V2000
   -1.2371    1.8011   -0.0477 C   0  0  0  0  0  0  0  0  0  0  0  0
   -1.2756    0.4131   -0.0622 C   0  0  0  0  0  0  0  0  0  0  0  0
   -0.0623   -0.2879   -0.0699 C   0  0  0  0  0  0  0  0  0  0  0  0
    1.1983    0.3750   -0.0626 C   0  0  0  0  0  0  0  0  0  0  0  0
    1.1831    1.7845   -0.0471 C   0  0  0  0  0  0  0  0  0  0  0  0
   -0.0127    2.4908   -0.0405 C   0  0  0  0  0  0  0  0  0  0  0  0
   -0.0784   -1.6861   -0.0864 C   0  0  0  0  0  0  0  0  0  0  0  0
    1.1226   -2.3915   -0.0957 C   0  0  0  0  0  0  0  0  0  0  0  0
    2.3382   -1.6486   -0.0874 C   0  0  0  0  0  0  0  0  0  0  0  0
    2.3466   -0.3116   -0.0709 N   0  0  0  0  0  0  0  0  0  0  0  0
   -1.3093   -2.3589   -0.0946 C   0  0  0  0  0  0  0  0  0  0  0  0
   -1.3276   -3.7708   -0.1126 C   0  0  0  0  0  0  0  0  0  0  0  0
   -0.1164   -4.4259   -0.1214 N   0  0  0  0  0  0  0  0  0  0  0  0
    1.0994   -3.7986   -0.1140 C   0  0  0  0  0  0  0  0  0  0  0  0
    2.3216   -4.4726   -0.1250 C   0  0  0  0  0  0  0  0  0  0  0  0
    3.5373   -3.7764   -0.1182 C   0  0  0  0  0  0  0  0  0  0  0  0
    3.5407   -2.3843   -0.0988 C   0  0  0  0  0  0  0  0  0  0  0  0
   -2.4997   -1.6079   -0.0854 C   0  0  0  0  0  0  0  0  0  0  0  0
   -3.7094   -2.2787   -0.0933 C   0  0  0  0  0  0  0  0  0  0  0  0
   -3.7471   -3.6771   -0.1110 C   0  0  0  0  0  0  0  0  0  0  0  0
   -2.5575   -4.4095   -0.1209 C   0  0  0  0  0  0  0  0  0  0  0  0
   -0.0491    4.0093   -0.0251 C   0  0  0  0  0  0  0  0  0  0  0  0
   -5.0639   -4.4331   -0.1240 C   0  0  0  0  0  0  0  0  0  0  0  0
    4.8276   -4.5791   -0.1358 C   0  0  0  0  0  0  0  0  0  0  0  0
   -6.2817   -3.5069   -0.0942 C   0  0  0  0  0  0  0  0  0  0  0  0
   -5.1343   -5.2779   -1.4055 C   0  0  0  0  0  0  0  0  0  0  0  0
   -5.1264   -5.3464    1.1100 C   0  0  0  0  0  0  0  0  0  0  0  0
    4.8614   -5.4324   -1.4128 C   0  0  0  0  0  0  0  0  0  0  0  0
    6.0736   -3.6908   -0.1197 C   0  0  0  0  0  0  0  0  0  0  0  0
    4.8673   -5.4855    1.1038 C   0  0  0  0  0  0  0  0  0  0  0  0
   -0.7885    4.4733    1.2388 C   0  0  0  0  0  0  0  0  0  0  0  0
   -0.7913    4.4995   -1.2775 C   0  0  0  0  0  0  0  0  0  0  0  0
    1.3487    4.6322   -0.0204 C   0  0  0  0  0  0  0  0  0  0  0  0
    2.1357    2.2845   -0.0413 H   0  0  0  0  0  0  0  0  0  0  0  0
   -2.1721    2.3364   -0.0424 H   0  0  0  0  0  0  0  0  0  0  0  0
    4.4579   -1.8221   -0.0927 H   0  0  0  0  0  0  0  0  0  0  0  0
    2.3188   -5.5513   -0.1396 H   0  0  0  0  0  0  0  0  0  0  0  0
   -2.5869   -5.4871   -0.1355 H   0  0  0  0  0  0  0  0  0  0  0  0
   -4.6131   -1.6961   -0.0859 H   0  0  0  0  0  0  0  0  0  0  0  0
    1.9088    4.3397    0.8642 H   0  0  0  0  0  0  0  0  0  0  0  0
    1.9078    4.3551   -0.9107 H   0  0  0  0  0  0  0  0  0  0  0  0
    1.2561    5.7151   -0.0110 H   0  0  0  0  0  0  0  0  0  0  0  0
   -1.8200    4.1523   -1.3014 H   0  0  0  0  0  0  0  0  0  0  0  0
   -0.8025    5.5859   -1.2926 H   0  0  0  0  0  0  0  0  0  0  0  0
   -0.2885    4.1499   -2.1764 H   0  0  0  0  0  0  0  0  0  0  0  0
   -1.8179    4.1275    1.2563 H   0  0  0  0  0  0  0  0  0  0  0  0
   -0.7976    5.5591    1.2779 H   0  0  0  0  0  0  0  0  0  0  0  0
   -0.2853    4.1030    2.1292 H   0  0  0  0  0  0  0  0  0  0  0  0
    4.0478   -6.1517   -1.4430 H   0  0  0  0  0  0  0  0  0  0  0  0
    5.7971   -5.9825   -1.4591 H   0  0  0  0  0  0  0  0  0  0  0  0
    4.7936   -4.7982   -2.2939 H   0  0  0  0  0  0  0  0  0  0  0  0
    4.0572   -6.2093    1.1053 H   0  0  0  0  0  0  0  0  0  0  0  0
    5.8054   -6.0333    1.1247 H   0  0  0  0  0  0  0  0  0  0  0  0
    4.7991   -4.8897    2.0112 H   0  0  0  0  0  0  0  0  0  0  0  0
    6.9598   -4.3199   -0.1312 H   0  0  0  0  0  0  0  0  0  0  0  0
    6.1124   -3.0483   -0.9958 H   0  0  0  0  0  0  0  0  0  0  0  0
    6.1123   -3.0805    0.7791 H   0  0  0  0  0  0  0  0  0  0  0  0
   -5.0323   -4.7594    2.0207 H   0  0  0  0  0  0  0  0  0  0  0  0
   -4.3407   -6.0961    1.1009 H   0  0  0  0  0  0  0  0  0  0  0  0
   -6.0821   -5.8625    1.1328 H   0  0  0  0  0  0  0  0  0  0  0  0
   -5.0566   -4.6409   -2.2836 H   0  0  0  0  0  0  0  0  0  0  0  0
   -4.3409   -6.0187   -1.4467 H   0  0  0  0  0  0  0  0  0  0  0  0
   -6.0856   -5.8011   -1.4453 H   0  0  0  0  0  0  0  0  0  0  0  0
   -6.3098   -2.8616   -0.9687 H   0  0  0  0  0  0  0  0  0  0  0  0
   -6.2940   -2.8987    0.8068 H   0  0  0  0  0  0  0  0  0  0  0  0
   -7.1867   -4.1088   -0.0991 H   0  0  0  0  0  0  0  0  0  0  0  0
   -2.4630   -0.2470   -0.0693 O   0  0  0  0  0  0  0  0  0  0  0  0
   -0.1322   -5.4384   -0.1346 H   0  0  0  0  0  0  0  0  0  0  0  0
  1  2  2  0  0  0  0
  1 35  1  0  0  0  0
  2  3  1  0  0  0  0
  3  7  2  0  0  0  0
  4  5  1  0  0  0  0
  5  6  2  0  0  0  0
  5 34  1  0  0  0  0
  6  1  1  0  0  0  0
  6 22  1  0  0  0  0
  8  9  1  0  0  0  0
 10  4  2  0  0  0  0
 11 12  2  0  0  0  0
 11 18  1  0  0  0  0
 13 14  1  0  0  0  0
 14  8  2  0  0  0  0
 15 16  2  0  0  0  0
 15 37  1  0  0  0  0
 16 24  1  0  0  0  0
 17  9  2  0  0  0  0
 17 36  1  0  0  0  0
 18 19  2  0  0  0  0
 19 20  1  0  0  0  0
 19 39  1  0  0  0  0
 20 21  2  0  0  0  0
 20 23  1  0  0  0  0
 21 12  1  0  0  0  0
 21 38  1  0  0  0  0
 22 31  1  0  0  0  0
 22 32  1  0  0  0  0
 22 33  1  0  0  0  0
 23 25  1  0  0  0  0
 23 26  1  0  0  0  0
 23 27  1  0  0  0  0
 24 28  1  0  0  0  0
 24 29  1  0  0  0  0
 24 30  1  0  0  0  0
 25 64  1  0  0  0  0
 25 65  1  0  0  0  0
 25 66  1  0  0  0  0
 26 61  1  0  0  0  0
 26 62  1  0  0  0  0
 26 63  1  0  0  0  0
 27 58  1  0  0  0  0
 27 59  1  0  0  0  0
 27 60  1  0  0  0  0
 28 49  1  0  0  0  0
 28 50  1  0  0  0  0
 28 51  1  0  0  0  0
 29 55  1  0  0  0  0
 29 56  1  0  0  0  0
 29 57  1  0  0  0  0
 30 52  1  0  0  0  0
 30 53  1  0  0  0  0
 30 54  1  0  0  0  0
 31 46  1  0  0  0  0
 31 47  1  0  0  0  0
 31 48  1  0  0  0  0
 32 43  1  0  0  0  0
 32 44  1  0  0  0  0
 32 45  1  0  0  0  0
 33 40  1  0  0  0  0
 33 41  1  0  0  0  0
 33 42  1  0  0  0  0
 18 67  1  0  0  0  0
 67  2  1  0  0  0  0
 12 13  1  0  0  0  0
 10  9  1  0  0  0  0
 17 16  1  0  0  0  0
 14 15  1  0  0  0  0
  3  4  1  0  0  0  0
 11  7  1  0  0  0  0
  7  8  1  0  0  0  0
 13 68  1  0  0  0  0
M  CHG  1   1   1
M  END
