 energy: -187.565699891445 gnorm: 0.000095763219 xtb: 6.7.1 (edcfbbe)
          03102510473D

136146  0     0  0            999 V2000
   -1.3376    0.6696    2.4850 C   0  0  0  0  0  0  0  0  0  0  0  0
   -1.3462   -0.6637    2.1672 C   0  0  0  0  0  0  0  0  0  0  0  0
   -0.1191   -1.3327    1.9860 C   0  0  0  0  0  0  0  0  0  0  0  0
    1.1305   -0.6674    2.1381 C   0  0  0  0  0  0  0  0  0  0  0  0
    1.0816    0.7000    2.4861 C   0  0  0  0  0  0  0  0  0  0  0  0
   -0.1143    1.3661    2.6282 C   0  0  0  0  0  0  0  0  0  0  0  0
   -0.1136   -2.6568    1.5614 C   0  0  0  0  0  0  0  0  0  0  0  0
    1.0902   -3.2854    1.2744 C   0  0  0  0  0  0  0  0  0  0  0  0
    2.2925   -2.5384    1.4336 C   0  0  0  0  0  0  0  0  0  0  0  0
    2.2920   -1.2774    1.8740 N   0  0  0  0  0  0  0  0  0  0  0  0
   -1.3525   -3.3052    1.3047 C   0  0  0  0  0  0  0  0  0  0  0  0
   -1.3498   -4.6041    0.7763 C   0  0  0  0  0  0  0  0  0  0  0  0
   -0.1383   -5.2270    0.5866 N   0  0  0  0  0  0  0  0  0  0  0  0
    1.0888   -4.5951    0.7406 C   0  0  0  0  0  0  0  0  0  0  0  0
    2.2820   -5.1576    0.3631 C   0  0  0  0  0  0  0  0  0  0  0  0
    3.4934   -4.4383    0.4917 C   0  0  0  0  0  0  0  0  0  0  0  0
    3.4901   -3.1710    1.0250 C   0  0  0  0  0  0  0  0  0  0  0  0
   -2.5417   -2.5956    1.4867 C   0  0  0  0  0  0  0  0  0  0  0  0
   -3.7419   -3.1959    1.1247 C   0  0  0  0  0  0  0  0  0  0  0  0
   -3.7609   -4.4858    0.5968 C   0  0  0  0  0  0  0  0  0  0  0  0
   -2.5657   -5.1858    0.4404 C   0  0  0  0  0  0  0  0  0  0  0  0
   -0.1404    2.8825    2.7735 C   0  0  0  0  0  0  0  0  0  0  0  0
   -5.0492   -5.1332    0.1056 C   0  0  0  0  0  0  0  0  0  0  0  0
    4.7572   -5.0829   -0.0644 C   0  0  0  0  0  0  0  0  0  0  0  0
   -6.2962   -4.3140    0.4486 C   0  0  0  0  0  0  0  0  0  0  0  0
   -4.9606   -5.2530   -1.4238 C   0  0  0  0  0  0  0  0  0  0  0  0
   -5.2168   -6.5303    0.7196 C   0  0  0  0  0  0  0  0  0  0  0  0
    4.6130   -5.1452   -1.5931 C   0  0  0  0  0  0  0  0  0  0  0  0
    6.0219   -4.2860    0.2652 C   0  0  0  0  0  0  0  0  0  0  0  0
    4.9384   -6.5033    0.4897 C   0  0  0  0  0  0  0  0  0  0  0  0
   -1.3826    3.3814    3.5199 C   0  0  0  0  0  0  0  0  0  0  0  0
   -0.1599    3.4530    1.3451 C   0  0  0  0  0  0  0  0  0  0  0  0
    1.0986    3.4124    3.5029 C   0  0  0  0  0  0  0  0  0  0  0  0
    2.0267    1.2032    2.5895 H   0  0  0  0  0  0  0  0  0  0  0  0
   -2.2815    1.1746    2.5942 H   0  0  0  0  0  0  0  0  0  0  0  0
    4.3909   -2.5909    1.1148 H   0  0  0  0  0  0  0  0  0  0  0  0
    2.2811   -6.1463   -0.0700 H   0  0  0  0  0  0  0  0  0  0  0  0
   -2.5641   -6.1789    0.0183 H   0  0  0  0  0  0  0  0  0  0  0  0
   -4.6436   -2.6212    1.2362 H   0  0  0  0  0  0  0  0  0  0  0  0
    1.2265    2.9112    4.4585 H   0  0  0  0  0  0  0  0  0  0  0  0
    1.9992    3.2746    2.9118 H   0  0  0  0  0  0  0  0  0  0  0  0
    0.9870    4.4797    3.6850 H   0  0  0  0  0  0  0  0  0  0  0  0
   -1.0399    3.1072    0.8067 H   0  0  0  0  0  0  0  0  0  0  0  0
   -0.1767    4.5405    1.3759 H   0  0  0  0  0  0  0  0  0  0  0  0
    0.7230    3.1332    0.7964 H   0  0  0  0  0  0  0  0  0  0  0  0
   -2.2910    3.2199    2.9457 H   0  0  0  0  0  0  0  0  0  0  0  0
   -1.2967    4.4518    3.6951 H   0  0  0  0  0  0  0  0  0  0  0  0
   -1.4762    2.8859    4.4820 H   0  0  0  0  0  0  0  0  0  0  0  0
    3.7567   -5.7483   -1.8846 H   0  0  0  0  0  0  0  0  0  0  0  0
    5.5059   -5.5805   -2.0367 H   0  0  0  0  0  0  0  0  0  0  0  0
    4.4777   -4.1444   -1.9977 H   0  0  0  0  0  0  0  0  0  0  0  0
    4.1266   -7.1616    0.1938 H   0  0  0  0  0  0  0  0  0  0  0  0
    5.8651   -6.9296    0.1111 H   0  0  0  0  0  0  0  0  0  0  0  0
    4.9877   -6.4858    1.5754 H   0  0  0  0  0  0  0  0  0  0  0  0
    6.8919   -4.8100   -0.1258 H   0  0  0  0  0  0  0  0  0  0  0  0
    5.9950   -3.2999   -0.1910 H   0  0  0  0  0  0  0  0  0  0  0  0
    6.1443   -4.1775    1.3391 H   0  0  0  0  0  0  0  0  0  0  0  0
   -5.2361   -6.4708    1.8049 H   0  0  0  0  0  0  0  0  0  0  0  0
   -4.4122   -7.1988    0.4277 H   0  0  0  0  0  0  0  0  0  0  0  0
   -6.1532   -6.9697    0.3834 H   0  0  0  0  0  0  0  0  0  0  0  0
   -4.8282   -4.2703   -1.8710 H   0  0  0  0  0  0  0  0  0  0  0  0
   -4.1236   -5.8783   -1.7229 H   0  0  0  0  0  0  0  0  0  0  0  0
   -5.8744   -5.6921   -1.8177 H   0  0  0  0  0  0  0  0  0  0  0  0
   -6.2774   -3.3444   -0.0425 H   0  0  0  0  0  0  0  0  0  0  0  0
   -6.3874   -4.1699    1.5216 H   0  0  0  0  0  0  0  0  0  0  0  0
   -7.1811   -4.8437    0.1022 H   0  0  0  0  0  0  0  0  0  0  0  0
   -2.5428   -1.3201    1.9595 O   0  0  0  0  0  0  0  0  0  0  0  0
   -0.1405   -6.1380    0.1505 H   0  0  0  0  0  0  0  0  0  0  0  0
   -1.1646    2.3414    6.9786 C   0  0  0  0  0  0  0  0  0  0  0  0
   -1.2056    1.0988    6.4009 C   0  0  0  0  0  0  0  0  0  0  0  0
    0.0042    0.4518    6.0822 C   0  0  0  0  0  0  0  0  0  0  0  0
    1.2682    1.0402    6.3625 C   0  0  0  0  0  0  0  0  0  0  0  0
    1.2546    2.3282    6.9493 C   0  0  0  0  0  0  0  0  0  0  0  0
    0.0767    2.9673    7.2488 C   0  0  0  0  0  0  0  0  0  0  0  0
   -0.0211   -0.8195    5.5200 C   0  0  0  0  0  0  0  0  0  0  0  0
    1.1677   -1.4860    5.2649 C   0  0  0  0  0  0  0  0  0  0  0  0
    2.3878   -0.8270    5.5881 C   0  0  0  0  0  0  0  0  0  0  0  0
    2.4152    0.4061    6.1092 N   0  0  0  0  0  0  0  0  0  0  0  0
   -1.2717   -1.4495    5.2922 C   0  0  0  0  0  0  0  0  0  0  0  0
   -1.3009   -2.7566    4.7891 C   0  0  0  0  0  0  0  0  0  0  0  0
   -0.1039   -3.3685    4.5046 N   0  0  0  0  0  0  0  0  0  0  0  0
    1.1393   -2.8034    4.7561 C   0  0  0  0  0  0  0  0  0  0  0  0
    2.3280   -3.4696    4.5725 C   0  0  0  0  0  0  0  0  0  0  0  0
    3.5519   -2.8492    4.8982 C   0  0  0  0  0  0  0  0  0  0  0  0
    3.5718   -1.5602    5.3827 C   0  0  0  0  0  0  0  0  0  0  0  0
   -2.4445   -0.7716    5.6360 C   0  0  0  0  0  0  0  0  0  0  0  0
   -3.6583   -1.4197    5.4820 C   0  0  0  0  0  0  0  0  0  0  0  0
   -3.7099   -2.7256    4.9905 C   0  0  0  0  0  0  0  0  0  0  0  0
   -2.5365   -3.3808    4.6332 C   0  0  0  0  0  0  0  0  0  0  0  0
    0.0410    4.3538    7.8757 C   0  0  0  0  0  0  0  0  0  0  0  0
   -5.0664   -3.4119    4.9307 C   0  0  0  0  0  0  0  0  0  0  0  0
    4.8691   -3.6063    4.7958 C   0  0  0  0  0  0  0  0  0  0  0  0
   -6.0698   -2.5247    4.1811 C   0  0  0  0  0  0  0  0  0  0  0  0
   -5.0048   -4.7706    4.2286 C   0  0  0  0  0  0  0  0  0  0  0  0
   -5.5533   -3.6333    6.3707 C   0  0  0  0  0  0  0  0  0  0  0  0
    4.7299   -4.9374    4.0529 C   0  0  0  0  0  0  0  0  0  0  0  0
    5.9061   -2.7505    4.0561 C   0  0  0  0  0  0  0  0  0  0  0  0
    5.3643   -3.8950    6.2210 C   0  0  0  0  0  0  0  0  0  0  0  0
   -0.6896    4.2787    9.2238 C   0  0  0  0  0  0  0  0  0  0  0  0
   -0.7001    5.3103    6.9312 C   0  0  0  0  0  0  0  0  0  0  0  0
    1.4392    4.9250    8.1246 C   0  0  0  0  0  0  0  0  0  0  0  0
    2.2135    2.7717    7.1521 H   0  0  0  0  0  0  0  0  0  0  0  0
   -2.0939    2.8287    7.2241 H   0  0  0  0  0  0  0  0  0  0  0  0
    4.4953   -1.0732    5.6456 H   0  0  0  0  0  0  0  0  0  0  0  0
    2.3044   -4.4755    4.1857 H   0  0  0  0  0  0  0  0  0  0  0  0
   -2.5556   -4.3868    4.2467 H   0  0  0  0  0  0  0  0  0  0  0  0
   -4.5538   -0.8957    5.7695 H   0  0  0  0  0  0  0  0  0  0  0  0
    2.0013    4.2969    8.8111 H   0  0  0  0  0  0  0  0  0  0  0  0
    1.9932    5.0194    7.1940 H   0  0  0  0  0  0  0  0  0  0  0  0
    1.3519    5.9153    8.5677 H   0  0  0  0  0  0  0  0  0  0  0  0
   -1.7203    4.9841    6.7511 H   0  0  0  0  0  0  0  0  0  0  0  0
   -0.7321    6.3097    7.3606 H   0  0  0  0  0  0  0  0  0  0  0  0
   -0.1837    5.3605    5.9755 H   0  0  0  0  0  0  0  0  0  0  0  0
   -1.7177    3.9497    9.1033 H   0  0  0  0  0  0  0  0  0  0  0  0
   -0.6995    5.2577    9.6985 H   0  0  0  0  0  0  0  0  0  0  0  0
   -0.1827    3.5792    9.8851 H   0  0  0  0  0  0  0  0  0  0  0  0
    4.1061   -5.6363    4.6065 H   0  0  0  0  0  0  0  0  0  0  0  0
    5.7118   -5.3940    3.9379 H   0  0  0  0  0  0  0  0  0  0  0  0
    4.3016   -4.7776    3.0663 H   0  0  0  0  0  0  0  0  0  0  0  0
    4.6447   -4.5138    6.7540 H   0  0  0  0  0  0  0  0  0  0  0  0
    6.3164   -4.4211    6.1890 H   0  0  0  0  0  0  0  0  0  0  0  0
    5.4963   -2.9721    6.7790 H   0  0  0  0  0  0  0  0  0  0  0  0
    6.8005   -3.3366    3.8516 H   0  0  0  0  0  0  0  0  0  0  0  0
    5.4925   -2.3944    3.1169 H   0  0  0  0  0  0  0  0  0  0  0  0
    6.2011   -1.8878    4.6450 H   0  0  0  0  0  0  0  0  0  0  0  0
   -5.6427   -2.6903    6.9029 H   0  0  0  0  0  0  0  0  0  0  0  0
   -4.8527   -4.2645    6.9134 H   0  0  0  0  0  0  0  0  0  0  0  0
   -6.5261   -4.1203    6.3657 H   0  0  0  0  0  0  0  0  0  0  0  0
   -4.5940   -4.6651    3.2275 H   0  0  0  0  0  0  0  0  0  0  0  0
   -4.3980   -5.4762    4.7916 H   0  0  0  0  0  0  0  0  0  0  0  0
   -6.0081   -5.1860    4.1522 H   0  0  0  0  0  0  0  0  0  0  0  0
   -5.6641   -2.2305    3.2171 H   0  0  0  0  0  0  0  0  0  0  0  0
   -6.3008   -1.6235    4.7407 H   0  0  0  0  0  0  0  0  0  0  0  0
   -7.0010   -3.0647    4.0211 H   0  0  0  0  0  0  0  0  0  0  0  0
   -2.4148    0.4895    6.1493 O   0  0  0  0  0  0  0  0  0  0  0  0
   -0.1251   -4.3146    4.1517 H   0  0  0  0  0  0  0  0  0  0  0  0
  1  2  2  0  0  0  0
  1 35  1  0  0  0  0
  2  3  1  0  0  0  0
  3  7  2  0  0  0  0
  3  4  1  0  0  0  0
  4  5  1  0  0  0  0
  5  6  2  0  0  0  0
  5 34  1  0  0  0  0
  6  1  1  0  0  0  0
  6 22  1  0  0  0  0
  7  8  1  0  0  0  0
  8  9  1  0  0  0  0
 10  4  2  0  0  0  0
 10  9  1  0  0  0  0
 11 12  2  0  0  0  0
 11 18  1  0  0  0  0
 11  7  1  0  0  0  0
 12 13  1  0  0  0  0
 13 14  1  0  0  0  0
 13 68  1  0  0  0  0
 14  8  2  0  0  0  0
 14 15  1  0  0  0  0
 15 16  2  0  0  0  0
 15 37  1  0  0  0  0
 16 24  1  0  0  0  0
 17  9  2  0  0  0  0
 17 36  1  0  0  0  0
 17 16  1  0  0  0  0
 18 19  2  0  0  0  0
 18 67  1  0  0  0  0
 19 20  1  0  0  0  0
 19 39  1  0  0  0  0
 20 21  2  0  0  0  0
 20 23  1  0  0  0  0
 21 12  1  0  0  0  0
 21 38  1  0  0  0  0
 22 31  1  0  0  0  0
 22 32  1  0  0  0  0
 22 33  1  0  0  0  0
 23 25  1  0  0  0  0
 23 26  1  0  0  0  0
 23 27  1  0  0  0  0
 24 28  1  0  0  0  0
 24 29  1  0  0  0  0
 24 30  1  0  0  0  0
 25 64  1  0  0  0  0
 25 65  1  0  0  0  0
 25 66  1  0  0  0  0
 26 61  1  0  0  0  0
 26 62  1  0  0  0  0
 26 63  1  0  0  0  0
 27 58  1  0  0  0  0
 27 59  1  0  0  0  0
 27 60  1  0  0  0  0
 28 49  1  0  0  0  0
 28 50  1  0  0  0  0
 28 51  1  0  0  0  0
 29 55  1  0  0  0  0
 29 56  1  0  0  0  0
 29 57  1  0  0  0  0
 30 52  1  0  0  0  0
 30 53  1  0  0  0  0
 30 54  1  0  0  0  0
 31 46  1  0  0  0  0
 31 47  1  0  0  0  0
 31 48  1  0  0  0  0
 32 43  1  0  0  0  0
 32 44  1  0  0  0  0
 32 45  1  0  0  0  0
 33 40  1  0  0  0  0
 33 41  1  0  0  0  0
 33 42  1  0  0  0  0
 67  2  1  0  0  0  0
 69 70  2  0  0  0  0
 69103  1  0  0  0  0
 70 71  1  0  0  0  0
 71 75  2  0  0  0  0
 71 72  1  0  0  0  0
 72 73  1  0  0  0  0
 73 74  2  0  0  0  0
 73102  1  0  0  0  0
 74 69  1  0  0  0  0
 74 90  1  0  0  0  0
 75 76  1  0  0  0  0
 76 77  1  0  0  0  0
 78 72  2  0  0  0  0
 78 77  1  0  0  0  0
 79 80  2  0  0  0  0
 79 86  1  0  0  0  0
 79 75  1  0  0  0  0
 80 81  1  0  0  0  0
 81 82  1  0  0  0  0
 81136  1  0  0  0  0
 82 76  2  0  0  0  0
 82 83  1  0  0  0  0
 83 84  2  0  0  0  0
 83105  1  0  0  0  0
 84 92  1  0  0  0  0
 85 77  2  0  0  0  0
 85104  1  0  0  0  0
 85 84  1  0  0  0  0
 86 87  2  0  0  0  0
 86135  1  0  0  0  0
 87 88  1  0  0  0  0
 87107  1  0  0  0  0
 88 89  2  0  0  0  0
 88 91  1  0  0  0  0
 89 80  1  0  0  0  0
 89106  1  0  0  0  0
 90 99  1  0  0  0  0
 90100  1  0  0  0  0
 90101  1  0  0  0  0
 91 93  1  0  0  0  0
 91 94  1  0  0  0  0
 91 95  1  0  0  0  0
 92 96  1  0  0  0  0
 92 97  1  0  0  0  0
 92 98  1  0  0  0  0
 93132  1  0  0  0  0
 93133  1  0  0  0  0
 93134  1  0  0  0  0
 94129  1  0  0  0  0
 94130  1  0  0  0  0
 94131  1  0  0  0  0
 95126  1  0  0  0  0
 95127  1  0  0  0  0
 95128  1  0  0  0  0
 96117  1  0  0  0  0
 96118  1  0  0  0  0
 96119  1  0  0  0  0
 97123  1  0  0  0  0
 97124  1  0  0  0  0
 97125  1  0  0  0  0
 98120  1  0  0  0  0
 98121  1  0  0  0  0
 98122  1  0  0  0  0
 99114  1  0  0  0  0
 99115  1  0  0  0  0
 99116  1  0  0  0  0
100111  1  0  0  0  0
100112  1  0  0  0  0
100113  1  0  0  0  0
101108  1  0  0  0  0
101109  1  0  0  0  0
101110  1  0  0  0  0
135 70  1  0  0  0  0
M  END
