energy: -130.265278588137 gnorm: 0.000380388823 xtb: 6.7.1 (edcfbbe)_energy: -130.265278588137 gnorm: 0.000380388823 xtb: 6.7.1 (edcfbbe)
 OpenBabel03032514193D

156164  0  0  0  0  0  0  0  0999 V2000
    0.8291    3.2269   -3.3850 C   0  0  0  0  0  0  0  0  0  0  0  0
    2.7607   -3.1209   -0.2697 C   0  0  0  0  0  0  0  0  0  0  0  0
   -3.3954    0.6011   -2.3371 C   0  0  0  0  0  0  0  0  0  0  0  0
   -2.3644   -0.0514   -1.6854 C   0  0  0  0  0  0  0  0  0  0  0  0
   -1.0419    0.4587   -1.7687 C   0  0  0  0  0  0  0  0  0  0  0  0
   -0.7589    1.5103   -2.6701 C   0  0  0  0  0  0  0  0  0  0  0  0
   -1.8135    2.1444   -3.3227 C   0  0  0  0  0  0  0  0  0  0  0  0
   -3.1054    1.7124   -3.1133 C   0  0  0  0  0  0  0  0  0  0  0  0
    0.0405   -0.1014   -1.0261 C   0  0  1  0  0  0  0  0  0  0  0  0
    1.3375    0.0224   -1.5922 C   0  0  0  0  0  0  0  0  0  0  0  0
    1.5887    1.0355   -2.5453 C   0  0  0  0  0  0  0  0  0  0  0  0
    0.5567    1.8960   -2.8800 N   0  0  0  0  0  0  0  0  0  0  0  0
   -0.0507   -0.7623    0.2360 C   0  0  0  0  0  0  0  0  0  0  0  0
    0.9602   -1.6905    0.5774 C   0  0  0  0  0  0  0  0  0  0  0  0
    2.0371   -1.8661   -0.2806 N   0  0  0  0  0  0  0  0  0  0  0  0
    2.3580   -0.8695   -1.1894 C   0  0  0  0  0  0  0  0  0  0  0  0
    3.6343   -0.7109   -1.7160 C   0  0  0  0  0  0  0  0  0  0  0  0
    3.8526    0.2636   -2.6744 C   0  0  0  0  0  0  0  0  0  0  0  0
    2.8600    1.1220   -3.1028 C   0  0  0  0  0  0  0  0  0  0  0  0
   -1.0643   -0.4596    1.1814 C   0  0  0  0  0  0  0  0  0  0  0  0
   -1.1619   -1.2066    2.3418 C   0  0  0  0  0  0  0  0  0  0  0  0
   -0.2247   -2.1910    2.5972 C   0  0  0  0  0  0  0  0  0  0  0  0
    0.8554   -2.4110    1.7637 C   0  0  0  0  0  0  0  0  0  0  0  0
   -1.8617    0.6062    0.8947 O   0  0  0  0  0  0  0  0  0  0  0  0
   -2.5165   -1.2143   -0.9912 O   0  0  0  0  0  0  0  0  0  0  0  0
   -4.4905    2.6189   -3.8686 S   0  0  2  0  0  0  0  0  0  0  0  0
   -0.3958   -3.2419    4.0722 S   0  0  1  0  0  0  0  0  0  0  0  0
    5.5274    0.3975   -3.3815 S   0  0  2  0  0  0  0  0  0  0  0  0
    5.4241    1.4926   -4.3284 O   0  0  0  0  0  0  0  0  0  0  0  0
    5.4789   -1.0420   -4.2486 O   0  0  0  0  0  0  0  0  0  0  0  0
    4.6610   -1.0462   -5.3882 C   0  0  0  0  0  0  0  0  0  0  0  0
   -3.8470    3.6728   -4.6323 O   0  0  0  0  0  0  0  0  0  0  0  0
   -5.0552    3.2957   -2.4344 O   0  0  0  0  0  0  0  0  0  0  0  0
   -4.2399    4.2816   -1.8608 C   0  0  0  0  0  0  0  0  0  0  0  0
   -1.6284   -2.7865    4.6898 O   0  0  0  0  0  0  0  0  0  0  0  0
   -0.7318   -4.6610    3.2298 O   0  0  0  0  0  0  0  0  0  0  0  0
   -1.9703   -4.7022    2.5744 C   0  0  0  0  0  0  0  0  0  0  0  0
   -4.4208    0.2794   -2.2562 H   0  0  0  0  0  0  0  0  0  0  0  0
   -1.6726    2.9716   -3.9979 H   0  0  0  0  0  0  0  0  0  0  0  0
   -1.9425   -1.0561    3.0702 H   0  0  0  0  0  0  0  0  0  0  0  0
    1.5862   -3.1466    2.0539 H   0  0  0  0  0  0  0  0  0  0  0  0
    4.4658   -1.3241   -1.4085 H   0  0  0  0  0  0  0  0  0  0  0  0
    3.1185    1.8303   -3.8735 H   0  0  0  0  0  0  0  0  0  0  0  0
    1.8492   -4.2971   -0.6397 C   0  0  0  0  0  0  0  0  0  0  0  0
    2.6323   -5.6027   -0.6748 C   0  0  0  0  0  0  0  0  0  0  0  0
    0.3893    4.3014   -2.3837 C   0  0  0  0  0  0  0  0  0  0  0  0
    0.6411    5.6970   -2.9382 C   0  0  0  0  0  0  0  0  0  0  0  0
   -2.8752    0.9449    1.8077 C   0  0  0  0  0  0  0  0  0  0  0  0
   -3.8093   -1.7468   -0.8547 C   0  0  0  0  0  0  0  0  0  0  0  0
   -4.8762    4.9267   -1.2562 H   0  0  0  0  0  0  0  0  0  0  0  0
   -3.7641    4.8766   -2.6479 H   0  0  0  0  0  0  0  0  0  0  0  0
   -3.4664    3.8275   -1.2315 H   0  0  0  0  0  0  0  0  0  0  0  0
   -2.2431   -5.7493    2.4494 H   0  0  0  0  0  0  0  0  0  0  0  0
   -1.9072   -4.2148    1.5949 H   0  0  0  0  0  0  0  0  0  0  0  0
   -2.7305   -4.1981    3.1810 H   0  0  0  0  0  0  0  0  0  0  0  0
    5.0547   -1.7943   -6.0748 H   0  0  0  0  0  0  0  0  0  0  0  0
    4.6860   -0.0624   -5.8688 H   0  0  0  0  0  0  0  0  0  0  0  0
    3.6273   -1.2924   -5.1225 H   0  0  0  0  0  0  0  0  0  0  0  0
    3.2240   -3.2923    0.7077 H   0  0  0  0  0  0  0  0  0  0  0  0
    3.5571   -3.0675   -1.0103 H   0  0  0  0  0  0  0  0  0  0  0  0
    1.4092   -4.1010   -1.6199 H   0  0  0  0  0  0  0  0  0  0  0  0
    1.0338   -4.3786    0.0798 H   0  0  0  0  0  0  0  0  0  0  0  0
    3.4383   -5.5492   -1.4035 H   0  0  0  0  0  0  0  0  0  0  0  0
    1.9794   -6.4281   -0.9458 H   0  0  0  0  0  0  0  0  0  0  0  0
    3.0644   -5.8152    0.3004 H   0  0  0  0  0  0  0  0  0  0  0  0
   -3.3901    1.8003    1.3715 H   0  0  0  0  0  0  0  0  0  0  0  0
   -2.4618    1.2277    2.7814 H   0  0  0  0  0  0  0  0  0  0  0  0
   -3.5882    0.1257    1.9453 H   0  0  0  0  0  0  0  0  0  0  0  0
   -3.6972   -2.6380   -0.2378 H   0  0  0  0  0  0  0  0  0  0  0  0
   -4.2329   -2.0301   -1.8243 H   0  0  0  0  0  0  0  0  0  0  0  0
   -4.4866   -1.0458   -0.3565 H   0  0  0  0  0  0  0  0  0  0  0  0
    0.3457    6.4516   -2.2139 H   0  0  0  0  0  0  0  0  0  0  0  0
    0.0677    5.8538   -3.8489 H   0  0  0  0  0  0  0  0  0  0  0  0
    1.6953    5.8351   -3.1676 H   0  0  0  0  0  0  0  0  0  0  0  0
    0.9460    4.1626   -1.4542 H   0  0  0  0  0  0  0  0  0  0  0  0
   -0.6710    4.1835   -2.1564 H   0  0  0  0  0  0  0  0  0  0  0  0
    0.3305    3.3788   -4.3470 H   0  0  0  0  0  0  0  0  0  0  0  0
    1.8997    3.3314   -3.5470 H   0  0  0  0  0  0  0  0  0  0  0  0
    0.8291    3.2269    3.6150 C   0  0  0  0  0  0  0  0  0  0  0  0
    2.7607   -3.1209    6.7303 C   0  0  0  0  0  0  0  0  0  0  0  0
   -3.3954    0.6011    4.6629 C   0  0  0  0  0  0  0  0  0  0  0  0
   -2.3644   -0.0514    5.3146 C   0  0  0  0  0  0  0  0  0  0  0  0
   -1.0419    0.4587    5.2313 C   0  0  0  0  0  0  0  0  0  0  0  0
   -0.7589    1.5103    4.3299 C   0  0  0  0  0  0  0  0  0  0  0  0
   -1.8135    2.1444    3.6773 C   0  0  0  0  0  0  0  0  0  0  0  0
   -3.1054    1.7124    3.8867 C   0  0  0  0  0  0  0  0  0  0  0  0
    0.0405   -0.1014    5.9739 C   0  0  1  0  0  0  0  0  0  0  0  0
    1.3375    0.0224    5.4078 C   0  0  0  0  0  0  0  0  0  0  0  0
    1.5887    1.0355    4.4547 C   0  0  0  0  0  0  0  0  0  0  0  0
    0.5567    1.8960    4.1200 N   0  0  0  0  0  0  0  0  0  0  0  0
   -0.0507   -0.7623    7.2360 C   0  0  0  0  0  0  0  0  0  0  0  0
    0.9602   -1.6905    7.5774 C   0  0  0  0  0  0  0  0  0  0  0  0
    2.0371   -1.8661    6.7194 N   0  0  0  0  0  0  0  0  0  0  0  0
    2.3580   -0.8695    5.8106 C   0  0  0  0  0  0  0  0  0  0  0  0
    3.6343   -0.7109    5.2840 C   0  0  0  0  0  0  0  0  0  0  0  0
    3.8526    0.2636    4.3256 C   0  0  0  0  0  0  0  0  0  0  0  0
    2.8600    1.1220    3.8972 C   0  0  0  0  0  0  0  0  0  0  0  0
   -1.0643   -0.4596    8.1814 C   0  0  0  0  0  0  0  0  0  0  0  0
   -1.1619   -1.2066    9.3418 C   0  0  0  0  0  0  0  0  0  0  0  0
   -0.2247   -2.1910    9.5972 C   0  0  0  0  0  0  0  0  0  0  0  0
    0.8554   -2.4110    8.7637 C   0  0  0  0  0  0  0  0  0  0  0  0
   -1.8617    0.6062    7.8947 O   0  0  0  0  0  0  0  0  0  0  0  0
   -2.5165   -1.2143    6.0088 O   0  0  0  0  0  0  0  0  0  0  0  0
   -4.4905    2.6189    3.1314 S   0  0  2  0  0  0  0  0  0  0  0  0
   -0.3958   -3.2419   11.0722 S   0  0  1  0  0  0  0  0  0  0  0  0
    5.5274    0.3975    3.6185 S   0  0  2  0  0  0  0  0  0  0  0  0
    5.4241    1.4926    2.6716 O   0  0  0  0  0  0  0  0  0  0  0  0
    5.4789   -1.0420    2.7514 O   0  0  0  0  0  0  0  0  0  0  0  0
    4.6610   -1.0462    1.6118 C   0  0  0  0  0  0  0  0  0  0  0  0
   -3.8470    3.6728    2.3677 O   0  0  0  0  0  0  0  0  0  0  0  0
   -5.0552    3.2957    4.5656 O   0  0  0  0  0  0  0  0  0  0  0  0
   -4.2399    4.2816    5.1392 C   0  0  0  0  0  0  0  0  0  0  0  0
   -1.6284   -2.7865   11.6898 O   0  0  0  0  0  0  0  0  0  0  0  0
   -0.7318   -4.6610   10.2298 O   0  0  0  0  0  0  0  0  0  0  0  0
   -1.9703   -4.7022    9.5744 C   0  0  0  0  0  0  0  0  0  0  0  0
   -4.4208    0.2794    4.7438 H   0  0  0  0  0  0  0  0  0  0  0  0
   -1.6726    2.9716    3.0021 H   0  0  0  0  0  0  0  0  0  0  0  0
   -1.9425   -1.0561   10.0702 H   0  0  0  0  0  0  0  0  0  0  0  0
    1.5862   -3.1466    9.0539 H   0  0  0  0  0  0  0  0  0  0  0  0
    4.4658   -1.3241    5.5915 H   0  0  0  0  0  0  0  0  0  0  0  0
    3.1185    1.8303    3.1265 H   0  0  0  0  0  0  0  0  0  0  0  0
    1.8492   -4.2971    6.3603 C   0  0  0  0  0  0  0  0  0  0  0  0
    2.6323   -5.6027    6.3252 C   0  0  0  0  0  0  0  0  0  0  0  0
    0.3893    4.3014    4.6163 C   0  0  0  0  0  0  0  0  0  0  0  0
    0.6411    5.6970    4.0618 C   0  0  0  0  0  0  0  0  0  0  0  0
   -2.8752    0.9449    8.8077 C   0  0  0  0  0  0  0  0  0  0  0  0
   -3.8093   -1.7468    6.1453 C   0  0  0  0  0  0  0  0  0  0  0  0
   -4.8762    4.9267    5.7438 H   0  0  0  0  0  0  0  0  0  0  0  0
   -3.7641    4.8766    4.3521 H   0  0  0  0  0  0  0  0  0  0  0  0
   -3.4664    3.8275    5.7685 H   0  0  0  0  0  0  0  0  0  0  0  0
   -2.2431   -5.7493    9.4494 H   0  0  0  0  0  0  0  0  0  0  0  0
   -1.9072   -4.2148    8.5949 H   0  0  0  0  0  0  0  0  0  0  0  0
   -2.7305   -4.1981   10.1810 H   0  0  0  0  0  0  0  0  0  0  0  0
    5.0547   -1.7943    0.9252 H   0  0  0  0  0  0  0  0  0  0  0  0
    4.6860   -0.0624    1.1312 H   0  0  0  0  0  0  0  0  0  0  0  0
    3.6273   -1.2924    1.8775 H   0  0  0  0  0  0  0  0  0  0  0  0
    3.2240   -3.2923    7.7077 H   0  0  0  0  0  0  0  0  0  0  0  0
    3.5571   -3.0675    5.9897 H   0  0  0  0  0  0  0  0  0  0  0  0
    1.4092   -4.1010    5.3801 H   0  0  0  0  0  0  0  0  0  0  0  0
    1.0338   -4.3786    7.0798 H   0  0  0  0  0  0  0  0  0  0  0  0
    3.4383   -5.5492    5.5965 H   0  0  0  0  0  0  0  0  0  0  0  0
    1.9794   -6.4281    6.0542 H   0  0  0  0  0  0  0  0  0  0  0  0
    3.0644   -5.8152    7.3004 H   0  0  0  0  0  0  0  0  0  0  0  0
   -3.3901    1.8003    8.3715 H   0  0  0  0  0  0  0  0  0  0  0  0
   -2.4618    1.2277    9.7814 H   0  0  0  0  0  0  0  0  0  0  0  0
   -3.5882    0.1257    8.9453 H   0  0  0  0  0  0  0  0  0  0  0  0
   -3.6972   -2.6380    6.7622 H   0  0  0  0  0  0  0  0  0  0  0  0
   -4.2329   -2.0301    5.1757 H   0  0  0  0  0  0  0  0  0  0  0  0
   -4.4866   -1.0458    6.6435 H   0  0  0  0  0  0  0  0  0  0  0  0
    0.3457    6.4516    4.7861 H   0  0  0  0  0  0  0  0  0  0  0  0
    0.0677    5.8538    3.1511 H   0  0  0  0  0  0  0  0  0  0  0  0
    1.6953    5.8351    3.8324 H   0  0  0  0  0  0  0  0  0  0  0  0
    0.9460    4.1626    5.5458 H   0  0  0  0  0  0  0  0  0  0  0  0
   -0.6710    4.1835    4.8436 H   0  0  0  0  0  0  0  0  0  0  0  0
    0.3305    3.3788    2.6530 H   0  0  0  0  0  0  0  0  0  0  0  0
    1.8997    3.3314    3.4530 H   0  0  0  0  0  0  0  0  0  0  0  0
  1 46  1  0  0  0  0
  1 77  1  0  0  0  0
  1 78  1  0  0  0  0
  2 44  1  0  0  0  0
  2 59  1  0  0  0  0
  2 60  1  0  0  0  0
  3  4  2  0  0  0  0
  3 38  1  0  0  0  0
  4  5  1  0  0  0  0
  4 25  1  0  0  0  0
  5  6  2  0  0  0  0
  6  7  1  0  0  0  0
  7  8  2  0  0  0  0
  7 39  1  0  0  0  0
  8  3  1  0  0  0  0
  8 26  1  0  0  0  0
  9  5  1  1  0  0  0
  9 10  1  0  0  0  0
 10 11  2  0  0  0  0
 11 12  1  0  0  0  0
 12  1  1  0  0  0  0
 12  6  1  0  0  0  0
 13 14  2  0  0  0  0
 13 20  1  0  0  0  0
 13  9  1  0  0  0  0
 14 15  1  0  0  0  0
 15  2  1  0  0  0  0
 15 16  1  0  0  0  0
 16 10  1  0  0  0  0
 16 17  2  0  0  0  0
 17 18  1  0  0  0  0
 17 42  1  0  0  0  0
 18 19  2  0  0  0  0
 18 28  1  0  0  0  0
 19 11  1  0  0  0  0
 19 43  1  0  0  0  0
 20 21  2  0  0  0  0
 21 22  1  0  0  0  0
 21 40  1  0  0  0  0
 22 23  2  0  0  0  0
 22 27  1  0  0  0  0
 23 14  1  0  0  0  0
 23 41  1  0  0  0  0
 24 48  1  0  0  0  0
 24 20  1  0  0  0  0
 25 49  1  0  0  0  0
 26 32  2  6  0  0  0
 26 33  1  0  0  0  0
 27 35  2  1  0  0  0
 27 36  1  0  0  0  0
 28 29  2  6  0  0  0
 28 30  1  0  0  0  0
 30 31  1  0  0  0  0
 31 56  1  0  0  0  0
 31 57  1  0  0  0  0
 31 58  1  0  0  0  0
 33 34  1  0  0  0  0
 34 50  1  0  0  0  0
 34 51  1  0  0  0  0
 34 52  1  0  0  0  0
 36 37  1  0  0  0  0
 37 53  1  0  0  0  0
 37 54  1  0  0  0  0
 37 55  1  0  0  0  0
 44 45  1  0  0  0  0
 44 61  1  0  0  0  0
 44 62  1  0  0  0  0
 45 63  1  0  0  0  0
 45 64  1  0  0  0  0
 45 65  1  0  0  0  0
 46 47  1  0  0  0  0
 46 75  1  0  0  0  0
 46 76  1  0  0  0  0
 47 72  1  0  0  0  0
 47 73  1  0  0  0  0
 47 74  1  0  0  0  0
 48 66  1  0  0  0  0
 48 67  1  0  0  0  0
 48 68  1  0  0  0  0
 49 69  1  0  0  0  0
 49 70  1  0  0  0  0
 49 71  1  0  0  0  0
 79124  1  0  0  0  0
 79155  1  0  0  0  0
 79156  1  0  0  0  0
 80122  1  0  0  0  0
 80137  1  0  0  0  0
 80138  1  0  0  0  0
 81 82  2  0  0  0  0
 81116  1  0  0  0  0
 82 83  1  0  0  0  0
 82103  1  0  0  0  0
 83 84  2  0  0  0  0
 84 85  1  0  0  0  0
 85 86  2  0  0  0  0
 85117  1  0  0  0  0
 86 81  1  0  0  0  0
 86104  1  0  0  0  0
 87 83  1  1  0  0  0
 87 88  1  0  0  0  0
 88 89  2  0  0  0  0
 89 90  1  0  0  0  0
 90 79  1  0  0  0  0
 90 84  1  0  0  0  0
 91 92  2  0  0  0  0
 91 98  1  0  0  0  0
 91 87  1  0  0  0  0
 92 93  1  0  0  0  0
 93 80  1  0  0  0  0
 93 94  1  0  0  0  0
 94 88  1  0  0  0  0
 94 95  2  0  0  0  0
 95 96  1  0  0  0  0
 95120  1  0  0  0  0
 96 97  2  0  0  0  0
 96106  1  0  0  0  0
 97 89  1  0  0  0  0
 97121  1  0  0  0  0
 98 99  2  0  0  0  0
 99100  1  0  0  0  0
 99118  1  0  0  0  0
100101  2  0  0  0  0
100105  1  0  0  0  0
101 92  1  0  0  0  0
101119  1  0  0  0  0
102126  1  0  0  0  0
102 98  1  0  0  0  0
103127  1  0  0  0  0
104110  2  6  0  0  0
104111  1  0  0  0  0
105113  2  1  0  0  0
105114  1  0  0  0  0
106107  2  6  0  0  0
106108  1  0  0  0  0
108109  1  0  0  0  0
109134  1  0  0  0  0
109135  1  0  0  0  0
109136  1  0  0  0  0
111112  1  0  0  0  0
112128  1  0  0  0  0
112129  1  0  0  0  0
112130  1  0  0  0  0
114115  1  0  0  0  0
115131  1  0  0  0  0
115132  1  0  0  0  0
115133  1  0  0  0  0
122123  1  0  0  0  0
122139  1  0  0  0  0
122140  1  0  0  0  0
123141  1  0  0  0  0
123142  1  0  0  0  0
123143  1  0  0  0  0
124125  1  0  0  0  0
124153  1  0  0  0  0
124154  1  0  0  0  0
125150  1  0  0  0  0
125151  1  0  0  0  0
125152  1  0  0  0  0
126144  1  0  0  0  0
126145  1  0  0  0  0
126146  1  0  0  0  0
127147  1  0  0  0  0
127148  1  0  0  0  0
127149  1  0  0  0  0
M  END
