 energy: -30.675965880958 gnorm: 0.000255060508 xtb: 6.7.1 (edcfbbe)
          03172512193D

156164  0     0  0            999 V2000
   -1.7691    2.7861    1.3674 C   0  0  0  0  0  0  0  0  0  0  0  0
   -1.7884    1.4062    1.5413 C   0  0  0  0  0  0  0  0  0  0  0  0
   -0.5836    0.7577    1.9705 C   0  0  0  0  0  0  0  0  0  0  0  0
    0.6226    1.4931    1.8935 C   0  0  0  0  0  0  0  0  0  0  0  0
    0.5856    2.8705    1.6805 C   0  0  0  0  0  0  0  0  0  0  0  0
   -0.6026    3.5425    1.4711 C   0  0  0  0  0  0  0  0  0  0  0  0
   -0.5439   -0.6239    2.4050 C   0  0  0  0  0  0  0  0  0  0  0  0
    0.6886   -1.3298    2.2973 C   0  0  0  0  0  0  0  0  0  0  0  0
    1.9093   -0.6309    2.1138 C   0  0  0  0  0  0  0  0  0  0  0  0
    1.9135    0.8249    2.0276 C   0  0  0  0  0  0  0  0  0  0  0  0
   -1.6818   -1.3291    2.9581 C   0  0  0  0  0  0  0  0  0  0  0  0
   -1.7159   -2.7434    2.9088 C   0  0  0  0  0  0  0  0  0  0  0  0
   -0.5039   -3.5024    2.6072 C   0  0  0  0  0  0  0  0  0  0  0  0
    0.7260   -2.7446    2.3964 C   0  0  0  0  0  0  0  0  0  0  0  0
    1.9457   -3.4017    2.3203 C   0  0  0  0  0  0  0  0  0  0  0  0
    3.1477   -2.7203    2.1740 C   0  0  0  0  0  0  0  0  0  0  0  0
    3.1039   -1.3349    2.0720 C   0  0  0  0  0  0  0  0  0  0  0  0
   -2.7399   -0.6626    3.6616 C   0  0  0  0  0  0  0  0  0  0  0  0
   -3.9075   -1.3754    3.9208 C   0  0  0  0  0  0  0  0  0  0  0  0
   -4.0170   -2.7464    3.6837 C   0  0  0  0  0  0  0  0  0  0  0  0
   -2.8925   -3.4173    3.2388 C   0  0  0  0  0  0  0  0  0  0  0  0
   -2.5089    0.6368    4.1393 O   0  0  0  0  0  0  0  0  0  0  0  0
   -2.9114    0.6213    1.2485 O   0  0  0  0  0  0  0  0  0  0  0  0
    2.9642    1.4660    2.0650 O   0  0  0  0  0  0  0  0  0  0  0  0
   -0.5030   -4.7333    2.6097 O   0  0  0  0  0  0  0  0  0  0  0  0
   -3.6362    1.2767    4.6954 C   0  0  0  0  0  0  0  0  0  0  0  0
   -4.0623    1.3365    0.8586 C   0  0  0  0  0  0  0  0  0  0  0  0
   -5.3523   -3.4606    3.9568 C   0  0  0  0  0  0  0  0  0  0  0  0
   -5.2745   -4.9643    3.6253 C   0  0  0  0  0  0  0  0  0  0  0  0
   -5.7341   -3.3135    5.4414 C   0  0  0  0  0  0  0  0  0  0  0  0
   -6.4493   -2.8269    3.0799 C   0  0  0  0  0  0  0  0  0  0  0  0
   -0.6704    5.0702    1.3087 C   0  0  0  0  0  0  0  0  0  0  0  0
   -1.6516    5.6489    2.3473 C   0  0  0  0  0  0  0  0  0  0  0  0
    0.7059    5.7298    1.5290 C   0  0  0  0  0  0  0  0  0  0  0  0
   -1.1566    5.4147   -0.1117 C   0  0  0  0  0  0  0  0  0  0  0  0
    4.4693   -3.5051    2.1585 C   0  0  0  0  0  0  0  0  0  0  0  0
    5.6867   -2.5746    1.9863 C   0  0  0  0  0  0  0  0  0  0  0  0
    4.4572   -4.5084    0.9897 C   0  0  0  0  0  0  0  0  0  0  0  0
    4.6232   -4.2624    3.4914 C   0  0  0  0  0  0  0  0  0  0  0  0
    5.5635   -4.8168    3.5217 H   0  0  0  0  0  0  0  0  0  0  0  0
    3.8112   -4.9762    3.6388 H   0  0  0  0  0  0  0  0  0  0  0  0
    4.6139   -3.5677    4.3335 H   0  0  0  0  0  0  0  0  0  0  0  0
    6.6163   -3.1478    1.9750 H   0  0  0  0  0  0  0  0  0  0  0  0
    5.7534   -1.8574    2.8067 H   0  0  0  0  0  0  0  0  0  0  0  0
    5.6299   -2.0218    1.0467 H   0  0  0  0  0  0  0  0  0  0  0  0
    5.3938   -5.0681    0.9429 H   0  0  0  0  0  0  0  0  0  0  0  0
    4.3262   -3.9905    0.0376 H   0  0  0  0  0  0  0  0  0  0  0  0
    3.6446   -5.2291    1.0928 H   0  0  0  0  0  0  0  0  0  0  0  0
   -7.4100   -3.3240    3.2309 H   0  0  0  0  0  0  0  0  0  0  0  0
   -6.1910   -2.9058    2.0223 H   0  0  0  0  0  0  0  0  0  0  0  0
   -6.5818   -1.7691    3.3129 H   0  0  0  0  0  0  0  0  0  0  0  0
   -6.6830   -3.8113    5.6529 H   0  0  0  0  0  0  0  0  0  0  0  0
   -5.8394   -2.2654    5.7264 H   0  0  0  0  0  0  0  0  0  0  0  0
   -4.9737   -3.7626    6.0809 H   0  0  0  0  0  0  0  0  0  0  0  0
   -6.2352   -5.4526    3.8029 H   0  0  0  0  0  0  0  0  0  0  0  0
   -4.5323   -5.4675    4.2474 H   0  0  0  0  0  0  0  0  0  0  0  0
   -5.0123   -5.1227    2.5777 H   0  0  0  0  0  0  0  0  0  0  0  0
   -3.3755    2.3074    4.9356 H   0  0  0  0  0  0  0  0  0  0  0  0
   -3.9475    0.7740    5.6110 H   0  0  0  0  0  0  0  0  0  0  0  0
   -4.4537    1.2850    3.9755 H   0  0  0  0  0  0  0  0  0  0  0  0
   -4.8763    0.6306    0.6943 H   0  0  0  0  0  0  0  0  0  0  0  0
   -3.8759    1.8756   -0.0703 H   0  0  0  0  0  0  0  0  0  0  0  0
   -4.3591    2.0301    1.6447 H   0  0  0  0  0  0  0  0  0  0  0  0
   -1.1968    6.4959   -0.2616 H   0  0  0  0  0  0  0  0  0  0  0  0
   -2.1553    5.0161   -0.2976 H   0  0  0  0  0  0  0  0  0  0  0  0
   -0.4843    4.9954   -0.8627 H   0  0  0  0  0  0  0  0  0  0  0  0
    1.0974    5.4996    2.5219 H   0  0  0  0  0  0  0  0  0  0  0  0
    0.6347    6.8166    1.4460 H   0  0  0  0  0  0  0  0  0  0  0  0
    1.4294    5.3920    0.7848 H   0  0  0  0  0  0  0  0  0  0  0  0
   -1.7039    6.7374    2.2748 H   0  0  0  0  0  0  0  0  0  0  0  0
   -1.3357    5.3934    3.3607 H   0  0  0  0  0  0  0  0  0  0  0  0
   -2.6605    5.2587    2.2041 H   0  0  0  0  0  0  0  0  0  0  0  0
    1.9464   -4.4741    2.4005 H   0  0  0  0  0  0  0  0  0  0  0  0
    4.0103   -0.7693    1.9561 H   0  0  0  0  0  0  0  0  0  0  0  0
    1.5201    3.4014    1.6849 H   0  0  0  0  0  0  0  0  0  0  0  0
   -2.6811    3.2939    1.1169 H   0  0  0  0  0  0  0  0  0  0  0  0
   -4.7441   -0.8660    4.3605 H   0  0  0  0  0  0  0  0  0  0  0  0
   -2.8982   -4.4874    3.1386 H   0  0  0  0  0  0  0  0  0  0  0  0
    1.1234   -0.8431    6.4476 C   0  0  0  0  0  0  0  0  0  0  0  0
    0.9248   -1.9229    7.3133 C   0  0  0  0  0  0  0  0  0  0  0  0
    0.9059   -1.6581    8.7257 C   0  0  0  0  0  0  0  0  0  0  0  0
    1.4330   -0.4267    9.1819 C   0  0  0  0  0  0  0  0  0  0  0  0
    1.6506    0.5971    8.2746 C   0  0  0  0  0  0  0  0  0  0  0  0
    1.4274    0.4251    6.9114 C   0  0  0  0  0  0  0  0  0  0  0  0
    0.4213   -2.6179    9.6823 C   0  0  0  0  0  0  0  0  0  0  0  0
    0.9235   -2.5591   11.0211 C   0  0  0  0  0  0  0  0  0  0  0  0
    1.5959   -1.4066   11.4838 C   0  0  0  0  0  0  0  0  0  0  0  0
    1.7642   -0.2483   10.5997 C   0  0  0  0  0  0  0  0  0  0  0  0
   -0.5773   -3.6050    9.3710 C   0  0  0  0  0  0  0  0  0  0  0  0
   -0.6951   -4.7613   10.1768 C   0  0  0  0  0  0  0  0  0  0  0  0
    0.0219   -4.8449   11.4541 C   0  0  0  0  0  0  0  0  0  0  0  0
    0.7395   -3.6468   11.9025 C   0  0  0  0  0  0  0  0  0  0  0  0
    1.2404   -3.5682   13.1902 C   0  0  0  0  0  0  0  0  0  0  0  0
    1.9029   -2.4404   13.6565 C   0  0  0  0  0  0  0  0  0  0  0  0
    2.0628   -1.3687   12.7865 C   0  0  0  0  0  0  0  0  0  0  0  0
   -1.5411   -3.4052    8.3268 C   0  0  0  0  0  0  0  0  0  0  0  0
   -2.3407   -4.4882    7.9518 C   0  0  0  0  0  0  0  0  0  0  0  0
   -2.3284   -5.6887    8.6395 C   0  0  0  0  0  0  0  0  0  0  0  0
   -1.5388   -5.7868    9.7813 C   0  0  0  0  0  0  0  0  0  0  0  0
   -1.6724   -2.1333    7.7964 O   0  0  0  0  0  0  0  0  0  0  0  0
    0.7888   -3.2335    6.8903 O   0  0  0  0  0  0  0  0  0  0  0  0
    2.1949    0.8144   11.0230 O   0  0  0  0  0  0  0  0  0  0  0  0
   -0.0162   -5.8560   12.1402 O   0  0  0  0  0  0  0  0  0  0  0  0
   -2.5110   -2.0242    6.6742 C   0  0  0  0  0  0  0  0  0  0  0  0
    0.7802   -3.4115    5.4960 C   0  0  0  0  0  0  0  0  0  0  0  0
   -3.2206   -6.8386    8.1515 C   0  0  0  0  0  0  0  0  0  0  0  0
   -3.0000   -8.1195    8.9782 C   0  0  0  0  0  0  0  0  0  0  0  0
   -4.6976   -6.4240    8.2722 C   0  0  0  0  0  0  0  0  0  0  0  0
   -2.8864   -7.1469    6.6793 C   0  0  0  0  0  0  0  0  0  0  0  0
    1.5336    1.5788    5.9065 C   0  0  0  0  0  0  0  0  0  0  0  0
    0.2232    1.6614    5.0971 C   0  0  0  0  0  0  0  0  0  0  0  0
    1.7473    2.9331    6.6071 C   0  0  0  0  0  0  0  0  0  0  0  0
    2.7251    1.3166    4.9710 C   0  0  0  0  0  0  0  0  0  0  0  0
    2.4187   -2.4098   15.1027 C   0  0  0  0  0  0  0  0  0  0  0  0
    3.1349   -1.0844   15.4247 C   0  0  0  0  0  0  0  0  0  0  0  0
    3.4152   -3.5645   15.3119 C   0  0  0  0  0  0  0  0  0  0  0  0
    1.2304   -2.5687   16.0683 C   0  0  0  0  0  0  0  0  0  0  0  0
    1.5625   -2.5346   17.1058 H   0  0  0  0  0  0  0  0  0  0  0  0
    0.7189   -3.5177   15.9129 H   0  0  0  0  0  0  0  0  0  0  0  0
    0.5047   -1.7696   15.9194 H   0  0  0  0  0  0  0  0  0  0  0  0
    3.4993   -1.0809   16.4520 H   0  0  0  0  0  0  0  0  0  0  0  0
    2.4599   -0.2365   15.3118 H   0  0  0  0  0  0  0  0  0  0  0  0
    3.9925   -0.9334   14.7698 H   0  0  0  0  0  0  0  0  0  0  0  0
    3.8140   -3.5575   16.3262 H   0  0  0  0  0  0  0  0  0  0  0  0
    4.2521   -3.4801   14.6192 H   0  0  0  0  0  0  0  0  0  0  0  0
    2.9412   -4.5311   15.1471 H   0  0  0  0  0  0  0  0  0  0  0  0
   -3.4895   -7.9740    6.3065 H   0  0  0  0  0  0  0  0  0  0  0  0
   -1.8367   -7.4176    6.5723 H   0  0  0  0  0  0  0  0  0  0  0  0
   -3.0727   -6.2859    6.0399 H   0  0  0  0  0  0  0  0  0  0  0  0
   -5.3565   -7.2261    7.9412 H   0  0  0  0  0  0  0  0  0  0  0  0
   -4.9118   -5.5460    7.6655 H   0  0  0  0  0  0  0  0  0  0  0  0
   -4.9473   -6.1849    9.3055 H   0  0  0  0  0  0  0  0  0  0  0  0
   -3.6098   -8.9373    8.5947 H   0  0  0  0  0  0  0  0  0  0  0  0
   -3.2753   -7.9665   10.0212 H   0  0  0  0  0  0  0  0  0  0  0  0
   -1.9579   -8.4349    8.9383 H   0  0  0  0  0  0  0  0  0  0  0  0
   -2.3833   -1.0261    6.2526 H   0  0  0  0  0  0  0  0  0  0  0  0
   -3.5497   -2.1561    6.9760 H   0  0  0  0  0  0  0  0  0  0  0  0
   -2.2277   -2.7608    5.9217 H   0  0  0  0  0  0  0  0  0  0  0  0
    0.6047   -4.4660    5.2771 H   0  0  0  0  0  0  0  0  0  0  0  0
    1.7429   -3.1144    5.0777 H   0  0  0  0  0  0  0  0  0  0  0  0
   -0.0276   -2.8264    5.0565 H   0  0  0  0  0  0  0  0  0  0  0  0
    2.8036    2.0868    4.2040 H   0  0  0  0  0  0  0  0  0  0  0  0
    2.6233    0.3613    4.4594 H   0  0  0  0  0  0  0  0  0  0  0  0
    3.6602    1.2943    5.5289 H   0  0  0  0  0  0  0  0  0  0  0  0
    0.9383    3.1420    7.3062 H   0  0  0  0  0  0  0  0  0  0  0  0
    1.7747    3.7426    5.8781 H   0  0  0  0  0  0  0  0  0  0  0  0
    2.6898    2.9501    7.1529 H   0  0  0  0  0  0  0  0  0  0  0  0
    0.2505    2.4849    4.3851 H   0  0  0  0  0  0  0  0  0  0  0  0
   -0.6319    1.8144    5.7540 H   0  0  0  0  0  0  0  0  0  0  0  0
    0.0364    0.7488    4.5347 H   0  0  0  0  0  0  0  0  0  0  0  0
    1.0937   -4.4123   13.8384 H   0  0  0  0  0  0  0  0  0  0  0  0
    2.5586   -0.4723   13.1083 H   0  0  0  0  0  0  0  0  0  0  0  0
    1.9933    1.5393    8.6596 H   0  0  0  0  0  0  0  0  0  0  0  0
    1.0409   -1.0000    5.3891 H   0  0  0  0  0  0  0  0  0  0  0  0
   -3.0067   -4.3767    7.1192 H   0  0  0  0  0  0  0  0  0  0  0  0
   -1.5720   -6.6670   10.3956 H   0  0  0  0  0  0  0  0  0  0  0  0
  1  2  2  0  0  0  0
  1 76  1  0  0  0  0
  2  3  1  0  0  0  0
  2 23  1  0  0  0  0
  3  4  2  0  0  0  0
  3  7  1  0  0  0  0
  4  5  1  0  0  0  0
  5  6  2  0  0  0  0
  5 75  1  0  0  0  0
  6 32  1  0  0  0  0
  6  1  1  0  0  0  0
  7  8  1  0  0  0  0
  8  9  2  0  0  0  0
  9 10  1  0  0  0  0
 10  4  1  0  0  0  0
 10 24  2  0  0  0  0
 11 12  2  0  0  0  0
 11 18  1  0  0  0  0
 11  7  1  0  0  0  0
 12 13  1  0  0  0  0
 13 14  1  0  0  0  0
 13 25  2  0  0  0  0
 14  8  1  0  0  0  0
 14 15  2  0  0  0  0
 15 16  1  0  0  0  0
 15 73  1  0  0  0  0
 16 36  1  0  0  0  0
 16 17  2  0  0  0  0
 17  9  1  0  0  0  0
 17 74  1  0  0  0  0
 18 19  2  0  0  0  0
 19 20  1  0  0  0  0
 19 77  1  0  0  0  0
 20 28  1  0  0  0  0
 20 21  2  0  0  0  0
 21 12  1  0  0  0  0
 21 78  1  0  0  0  0
 22 26  1  0  0  0  0
 22 18  1  0  0  0  0
 23 27  1  0  0  0  0
 26 58  1  0  0  0  0
 26 59  1  0  0  0  0
 26 60  1  0  0  0  0
 27 61  1  0  0  0  0
 27 62  1  0  0  0  0
 27 63  1  0  0  0  0
 28 29  1  0  0  0  0
 28 30  1  0  0  0  0
 28 31  1  0  0  0  0
 29 55  1  0  0  0  0
 29 56  1  0  0  0  0
 29 57  1  0  0  0  0
 30 52  1  0  0  0  0
 30 53  1  0  0  0  0
 30 54  1  0  0  0  0
 31 49  1  0  0  0  0
 31 50  1  0  0  0  0
 31 51  1  0  0  0  0
 32 33  1  0  0  0  0
 32 34  1  0  0  0  0
 32 35  1  0  0  0  0
 33 70  1  0  0  0  0
 33 71  1  0  0  0  0
 33 72  1  0  0  0  0
 34 67  1  0  0  0  0
 34 68  1  0  0  0  0
 34 69  1  0  0  0  0
 35 64  1  0  0  0  0
 35 65  1  0  0  0  0
 35 66  1  0  0  0  0
 36 37  1  0  0  0  0
 36 38  1  0  0  0  0
 36 39  1  0  0  0  0
 37 43  1  0  0  0  0
 37 44  1  0  0  0  0
 37 45  1  0  0  0  0
 38 46  1  0  0  0  0
 38 47  1  0  0  0  0
 38 48  1  0  0  0  0
 39 40  1  0  0  0  0
 39 41  1  0  0  0  0
 39 42  1  0  0  0  0
 79 80  2  0  0  0  0
 79154  1  0  0  0  0
 80 81  1  0  0  0  0
 80101  1  0  0  0  0
 81 82  2  0  0  0  0
 81 85  1  0  0  0  0
 82 83  1  0  0  0  0
 83 84  2  0  0  0  0
 83153  1  0  0  0  0
 84110  1  0  0  0  0
 84 79  1  0  0  0  0
 85 86  1  0  0  0  0
 86 87  2  0  0  0  0
 87 88  1  0  0  0  0
 88 82  1  0  0  0  0
 88102  2  0  0  0  0
 89 90  2  0  0  0  0
 89 96  1  0  0  0  0
 89 85  1  0  0  0  0
 90 91  1  0  0  0  0
 91 92  1  0  0  0  0
 91103  2  0  0  0  0
 92 86  1  0  0  0  0
 92 93  2  0  0  0  0
 93 94  1  0  0  0  0
 93151  1  0  0  0  0
 94114  1  0  0  0  0
 94 95  2  0  0  0  0
 95 87  1  0  0  0  0
 95152  1  0  0  0  0
 96 97  2  0  0  0  0
 97 98  1  0  0  0  0
 97155  1  0  0  0  0
 98106  1  0  0  0  0
 98 99  2  0  0  0  0
 99 90  1  0  0  0  0
 99156  1  0  0  0  0
100104  1  0  0  0  0
100 96  1  0  0  0  0
101105  1  0  0  0  0
104136  1  0  0  0  0
104137  1  0  0  0  0
104138  1  0  0  0  0
105139  1  0  0  0  0
105140  1  0  0  0  0
105141  1  0  0  0  0
106107  1  0  0  0  0
106108  1  0  0  0  0
106109  1  0  0  0  0
107133  1  0  0  0  0
107134  1  0  0  0  0
107135  1  0  0  0  0
108130  1  0  0  0  0
108131  1  0  0  0  0
108132  1  0  0  0  0
109127  1  0  0  0  0
109128  1  0  0  0  0
109129  1  0  0  0  0
110111  1  0  0  0  0
110112  1  0  0  0  0
110113  1  0  0  0  0
111148  1  0  0  0  0
111149  1  0  0  0  0
111150  1  0  0  0  0
112145  1  0  0  0  0
112146  1  0  0  0  0
112147  1  0  0  0  0
113142  1  0  0  0  0
113143  1  0  0  0  0
113144  1  0  0  0  0
114115  1  0  0  0  0
114116  1  0  0  0  0
114117  1  0  0  0  0
115121  1  0  0  0  0
115122  1  0  0  0  0
115123  1  0  0  0  0
116124  1  0  0  0  0
116125  1  0  0  0  0
116126  1  0  0  0  0
117118  1  0  0  0  0
117119  1  0  0  0  0
117120  1  0  0  0  0
M  CHG  1   7  -1
M  CHG  1  85  -1
M  END
