 energy: -222.828247210837 gnorm: 0.000102911232 xtb: 6.7.1 (edcfbbe)
          03172512253D

156164  0     0  0            999 V2000
   -2.0380    2.7678    0.7529 C   0  0  0  0  0  0  0  0  0  0  0  0
   -1.9419    1.4550    1.1454 C   0  0  0  0  0  0  0  0  0  0  0  0
   -0.7381    0.9484    1.7097 C   0  0  0  0  0  0  0  0  0  0  0  0
    0.3936    1.7832    1.6045 C   0  0  0  0  0  0  0  0  0  0  0  0
    0.2671    3.1162    1.1924 C   0  0  0  0  0  0  0  0  0  0  0  0
   -0.9421    3.6469    0.8188 C   0  0  0  0  0  0  0  0  0  0  0  0
   -0.6142   -0.3711    2.2369 C   0  0  0  0  0  0  0  0  0  0  0  0
    0.6707   -0.9472    2.2483 C   0  0  0  0  0  0  0  0  0  0  0  0
    1.8369   -0.1614    2.0706 C   0  0  0  0  0  0  0  0  0  0  0  0
    1.7399    1.2786    1.8613 C   0  0  0  0  0  0  0  0  0  0  0  0
   -1.6887   -1.1608    2.7486 C   0  0  0  0  0  0  0  0  0  0  0  0
   -1.5767   -2.5640    2.8103 C   0  0  0  0  0  0  0  0  0  0  0  0
   -0.3051   -3.2306    2.5429 C   0  0  0  0  0  0  0  0  0  0  0  0
    0.8488   -2.3425    2.4334 C   0  0  0  0  0  0  0  0  0  0  0  0
    2.1251   -2.8854    2.4678 C   0  0  0  0  0  0  0  0  0  0  0  0
    3.2719   -2.1086    2.3422 C   0  0  0  0  0  0  0  0  0  0  0  0
    3.0962   -0.7485    2.1334 C   0  0  0  0  0  0  0  0  0  0  0  0
   -2.8641   -0.6036    3.3226 C   0  0  0  0  0  0  0  0  0  0  0  0
   -3.9300   -1.4052    3.6541 C   0  0  0  0  0  0  0  0  0  0  0  0
   -3.8772   -2.8048    3.5320 C   0  0  0  0  0  0  0  0  0  0  0  0
   -2.6723   -3.3587    3.1746 C   0  0  0  0  0  0  0  0  0  0  0  0
   -2.8330    0.7474    3.5813 O   0  0  0  0  0  0  0  0  0  0  0  0
   -2.9429    0.5348    0.9262 O   0  0  0  0  0  0  0  0  0  0  0  0
    2.7368    2.0157    1.8358 O   0  0  0  0  0  0  0  0  0  0  0  0
   -0.2033   -4.4627    2.4623 O   0  0  0  0  0  0  0  0  0  0  0  0
   -3.8358    1.2981    4.3808 C   0  0  0  0  0  0  0  0  0  0  0  0
   -4.1998    0.9856    0.5265 C   0  0  0  0  0  0  0  0  0  0  0  0
   -5.1345   -3.6187    3.8019 C   0  0  0  0  0  0  0  0  0  0  0  0
   -4.8820   -5.1249    3.6991 C   0  0  0  0  0  0  0  0  0  0  0  0
   -5.6822   -3.3255    5.2053 C   0  0  0  0  0  0  0  0  0  0  0  0
   -6.1897   -3.2343    2.7527 C   0  0  0  0  0  0  0  0  0  0  0  0
   -1.1395    5.1030    0.4239 C   0  0  0  0  0  0  0  0  0  0  0  0
   -2.2305    5.7227    1.3092 C   0  0  0  0  0  0  0  0  0  0  0  0
    0.1382    5.9275    0.6011 C   0  0  0  0  0  0  0  0  0  0  0  0
   -1.5620    5.1863   -1.0505 C   0  0  0  0  0  0  0  0  0  0  0  0
    4.6398   -2.7685    2.4359 C   0  0  0  0  0  0  0  0  0  0  0  0
    5.7855   -1.7591    2.3223 C   0  0  0  0  0  0  0  0  0  0  0  0
    4.7804   -3.7925    1.3004 C   0  0  0  0  0  0  0  0  0  0  0  0
    4.7628   -3.4803    3.7905 C   0  0  0  0  0  0  0  0  0  0  0  0
    5.7423   -3.9483    3.8878 H   0  0  0  0  0  0  0  0  0  0  0  0
    4.0044   -4.2512    3.8977 H   0  0  0  0  0  0  0  0  0  0  0  0
    4.6406   -2.7656    4.6020 H   0  0  0  0  0  0  0  0  0  0  0  0
    6.7410   -2.2768    2.4090 H   0  0  0  0  0  0  0  0  0  0  0  0
    5.7255   -1.0187    3.1160 H   0  0  0  0  0  0  0  0  0  0  0  0
    5.7620   -1.2488    1.3619 H   0  0  0  0  0  0  0  0  0  0  0  0
    5.7499   -4.2883    1.3505 H   0  0  0  0  0  0  0  0  0  0  0  0
    4.6941   -3.2952    0.3357 H   0  0  0  0  0  0  0  0  0  0  0  0
    4.0030   -4.5491    1.3623 H   0  0  0  0  0  0  0  0  0  0  0  0
   -7.1062   -3.8050    2.9030 H   0  0  0  0  0  0  0  0  0  0  0  0
   -5.8110   -3.4396    1.7534 H   0  0  0  0  0  0  0  0  0  0  0  0
   -6.4298   -2.1755    2.8129 H   0  0  0  0  0  0  0  0  0  0  0  0
   -6.5620   -3.9374    5.4042 H   0  0  0  0  0  0  0  0  0  0  0  0
   -5.9647   -2.2818    5.3160 H   0  0  0  0  0  0  0  0  0  0  0  0
   -4.9287   -3.5521    5.9553 H   0  0  0  0  0  0  0  0  0  0  0  0
   -5.8072   -5.6693    3.8881 H   0  0  0  0  0  0  0  0  0  0  0  0
   -4.1462   -5.4436    4.4323 H   0  0  0  0  0  0  0  0  0  0  0  0
   -4.5241   -5.3914    2.7078 H   0  0  0  0  0  0  0  0  0  0  0  0
   -3.5334    2.3297    4.5646 H   0  0  0  0  0  0  0  0  0  0  0  0
   -3.9274    0.7725    5.3393 H   0  0  0  0  0  0  0  0  0  0  0  0
   -4.8150    1.2991    3.8812 H   0  0  0  0  0  0  0  0  0  0  0  0
   -4.8486    0.1085    0.5429 H   0  0  0  0  0  0  0  0  0  0  0  0
   -4.1872    1.4003   -0.4918 H   0  0  0  0  0  0  0  0  0  0  0  0
   -4.6022    1.7428    1.2112 H   0  0  0  0  0  0  0  0  0  0  0  0
   -1.6853    6.2258   -1.3551 H   0  0  0  0  0  0  0  0  0  0  0  0
   -2.5020    4.6675   -1.2206 H   0  0  0  0  0  0  0  0  0  0  0  0
   -0.8027    4.7270   -1.6803 H   0  0  0  0  0  0  0  0  0  0  0  0
    0.4852    5.8793    1.6298 H   0  0  0  0  0  0  0  0  0  0  0  0
   -0.0565    6.9709    0.3514 H   0  0  0  0  0  0  0  0  0  0  0  0
    0.9278    5.5631   -0.0509 H   0  0  0  0  0  0  0  0  0  0  0  0
   -2.3766    6.7736    1.0584 H   0  0  0  0  0  0  0  0  0  0  0  0
   -1.9413    5.6514    2.3553 H   0  0  0  0  0  0  0  0  0  0  0  0
   -3.1793    5.2073    1.1848 H   0  0  0  0  0  0  0  0  0  0  0  0
    2.1845   -3.9566    2.6028 H   0  0  0  0  0  0  0  0  0  0  0  0
    3.9336   -0.0781    2.0162 H   0  0  0  0  0  0  0  0  0  0  0  0
    1.1800    3.6904    1.1826 H   0  0  0  0  0  0  0  0  0  0  0  0
   -2.9718    3.1344    0.3524 H   0  0  0  0  0  0  0  0  0  0  0  0
   -4.8324   -0.9522    4.0362 H   0  0  0  0  0  0  0  0  0  0  0  0
   -2.5050   -4.4240    3.1549 H   0  0  0  0  0  0  0  0  0  0  0  0
    1.6390   -1.1892    6.7592 C   0  0  0  0  0  0  0  0  0  0  0  0
    1.1504   -2.1469    7.6161 C   0  0  0  0  0  0  0  0  0  0  0  0
    1.0037   -1.8659    9.0028 C   0  0  0  0  0  0  0  0  0  0  0  0
    1.6304   -0.6970    9.4760 C   0  0  0  0  0  0  0  0  0  0  0  0
    2.1425    0.2523    8.5781 C   0  0  0  0  0  0  0  0  0  0  0  0
    2.0944    0.0578    7.2193 C   0  0  0  0  0  0  0  0  0  0  0  0
    0.3482   -2.7523    9.9153 C   0  0  0  0  0  0  0  0  0  0  0  0
    0.7184   -2.6830   11.2675 C   0  0  0  0  0  0  0  0  0  0  0  0
    1.4454   -1.5756   11.7764 C   0  0  0  0  0  0  0  0  0  0  0  0
    1.8033   -0.4586   10.9049 C   0  0  0  0  0  0  0  0  0  0  0  0
   -0.6655   -3.6914    9.5616 C   0  0  0  0  0  0  0  0  0  0  0  0
   -0.9505   -4.7861   10.4028 C   0  0  0  0  0  0  0  0  0  0  0  0
   -0.3636   -4.8907   11.7325 C   0  0  0  0  0  0  0  0  0  0  0  0
    0.3689   -3.7117   12.1825 C   0  0  0  0  0  0  0  0  0  0  0  0
    0.7512   -3.6167   13.5125 C   0  0  0  0  0  0  0  0  0  0  0  0
    1.4501   -2.5253   14.0165 C   0  0  0  0  0  0  0  0  0  0  0  0
    1.7789   -1.5143   13.1236 C   0  0  0  0  0  0  0  0  0  0  0  0
   -1.5151   -3.5249    8.4307 C   0  0  0  0  0  0  0  0  0  0  0  0
   -2.3780   -4.5248    8.0526 C   0  0  0  0  0  0  0  0  0  0  0  0
   -2.5205   -5.7075    8.8018 C   0  0  0  0  0  0  0  0  0  0  0  0
   -1.8484   -5.7843    9.9957 C   0  0  0  0  0  0  0  0  0  0  0  0
   -1.4792   -2.2922    7.8328 O   0  0  0  0  0  0  0  0  0  0  0  0
    0.8536   -3.4263    7.2183 O   0  0  0  0  0  0  0  0  0  0  0  0
    2.2716    0.5997   11.3547 O   0  0  0  0  0  0  0  0  0  0  0  0
   -0.5253   -5.8862   12.4596 O   0  0  0  0  0  0  0  0  0  0  0  0
   -2.1955   -2.0770    6.6512 C   0  0  0  0  0  0  0  0  0  0  0  0
    0.9864   -3.7570    5.8636 C   0  0  0  0  0  0  0  0  0  0  0  0
   -3.4289   -6.8083    8.2732 C   0  0  0  0  0  0  0  0  0  0  0  0
   -3.4656   -8.0255    9.2018 C   0  0  0  0  0  0  0  0  0  0  0  0
   -4.8634   -6.2805    8.1255 C   0  0  0  0  0  0  0  0  0  0  0  0
   -2.9043   -7.2681    6.9057 C   0  0  0  0  0  0  0  0  0  0  0  0
    2.5192    1.0970    6.1944 C   0  0  0  0  0  0  0  0  0  0  0  0
    1.3106    1.4313    5.3087 C   0  0  0  0  0  0  0  0  0  0  0  0
    3.0068    2.3933    6.8480 C   0  0  0  0  0  0  0  0  0  0  0  0
    3.6548    0.5484    5.3207 C   0  0  0  0  0  0  0  0  0  0  0  0
    1.8115   -2.4851   15.4953 C   0  0  0  0  0  0  0  0  0  0  0  0
    2.5663   -1.2103   15.8825 C   0  0  0  0  0  0  0  0  0  0  0  0
    2.7015   -3.6907   15.8294 C   0  0  0  0  0  0  0  0  0  0  0  0
    0.5241   -2.5510   16.3296 C   0  0  0  0  0  0  0  0  0  0  0  0
    0.7546   -2.5288   17.3954 H   0  0  0  0  0  0  0  0  0  0  0  0
   -0.0301   -3.4606   16.1156 H   0  0  0  0  0  0  0  0  0  0  0  0
   -0.1150   -1.7020   16.0945 H   0  0  0  0  0  0  0  0  0  0  0  0
    2.7995   -1.2280   16.9479 H   0  0  0  0  0  0  0  0  0  0  0  0
    1.9645   -0.3278   15.6796 H   0  0  0  0  0  0  0  0  0  0  0  0
    3.4998   -1.1306   15.3306 H   0  0  0  0  0  0  0  0  0  0  0  0
    2.9665   -3.6919   16.8874 H   0  0  0  0  0  0  0  0  0  0  0  0
    3.6168   -3.6510   15.2420 H   0  0  0  0  0  0  0  0  0  0  0  0
    2.1929   -4.6227   15.5997 H   0  0  0  0  0  0  0  0  0  0  0  0
   -3.5517   -8.0368    6.4830 H   0  0  0  0  0  0  0  0  0  0  0  0
   -1.9014   -7.6763    7.0119 H   0  0  0  0  0  0  0  0  0  0  0  0
   -2.8530   -6.4389    6.2061 H   0  0  0  0  0  0  0  0  0  0  0  0
   -5.5294   -7.0756    7.7895 H   0  0  0  0  0  0  0  0  0  0  0  0
   -4.9124   -5.4714    7.4032 H   0  0  0  0  0  0  0  0  0  0  0  0
   -5.2235   -5.9060    9.0821 H   0  0  0  0  0  0  0  0  0  0  0  0
   -4.0928   -8.8040    8.7661 H   0  0  0  0  0  0  0  0  0  0  0  0
   -3.8764   -7.7596   10.1729 H   0  0  0  0  0  0  0  0  0  0  0  0
   -2.4669   -8.4299    9.3444 H   0  0  0  0  0  0  0  0  0  0  0  0
   -1.8797   -1.0997    6.2852 H   0  0  0  0  0  0  0  0  0  0  0  0
   -3.2788   -2.0596    6.8316 H   0  0  0  0  0  0  0  0  0  0  0  0
   -1.9764   -2.8249    5.8828 H   0  0  0  0  0  0  0  0  0  0  0  0
    0.6686   -4.7960    5.7776 H   0  0  0  0  0  0  0  0  0  0  0  0
    2.0252   -3.6678    5.5236 H   0  0  0  0  0  0  0  0  0  0  0  0
    0.3534   -3.1400    5.2177 H   0  0  0  0  0  0  0  0  0  0  0  0
    3.9311    1.2819    4.5654 H   0  0  0  0  0  0  0  0  0  0  0  0
    3.3493   -0.3569    4.8043 H   0  0  0  0  0  0  0  0  0  0  0  0
    4.5274    0.3222    5.9333 H   0  0  0  0  0  0  0  0  0  0  0  0
    2.2284    2.8299    7.4695 H   0  0  0  0  0  0  0  0  0  0  0  0
    3.2720    3.1117    6.0733 H   0  0  0  0  0  0  0  0  0  0  0  0
    3.8857    2.2125    7.4635 H   0  0  0  0  0  0  0  0  0  0  0  0
    1.5887    2.1518    4.5420 H   0  0  0  0  0  0  0  0  0  0  0  0
    0.5078    1.8528    5.9115 H   0  0  0  0  0  0  0  0  0  0  0  0
    0.9289    0.5454    4.8094 H   0  0  0  0  0  0  0  0  0  0  0  0
    0.4704   -4.4448   14.1497 H   0  0  0  0  0  0  0  0  0  0  0  0
    2.3094   -0.6276   13.4374 H   0  0  0  0  0  0  0  0  0  0  0  0
    2.5694    1.1382    9.0213 H   0  0  0  0  0  0  0  0  0  0  0  0
    1.6857   -1.3981    5.7018 H   0  0  0  0  0  0  0  0  0  0  0  0
   -2.9782   -4.3931    7.1651 H   0  0  0  0  0  0  0  0  0  0  0  0
   -1.9744   -6.6079   10.6807 H   0  0  0  0  0  0  0  0  0  0  0  0
  1  2  2  0  0  0  0
  1 76  1  0  0  0  0
  2  3  1  0  0  0  0
  2 23  1  0  0  0  0
  3  4  2  0  0  0  0
  3  7  1  0  0  0  0
  4  5  1  0  0  0  0
  5  6  2  0  0  0  0
  5 75  1  0  0  0  0
  6 32  1  0  0  0  0
  6  1  1  0  0  0  0
  7  8  1  0  0  0  0
  8  9  2  0  0  0  0
  9 10  1  0  0  0  0
 10  4  1  0  0  0  0
 10 24  2  0  0  0  0
 11 12  2  0  0  0  0
 11 18  1  0  0  0  0
 11  7  1  0  0  0  0
 12 13  1  0  0  0  0
 13 14  1  0  0  0  0
 13 25  2  0  0  0  0
 14  8  1  0  0  0  0
 14 15  2  0  0  0  0
 15 16  1  0  0  0  0
 15 73  1  0  0  0  0
 16 36  1  0  0  0  0
 16 17  2  0  0  0  0
 17  9  1  0  0  0  0
 17 74  1  0  0  0  0
 18 19  2  0  0  0  0
 19 20  1  0  0  0  0
 19 77  1  0  0  0  0
 20 28  1  0  0  0  0
 20 21  2  0  0  0  0
 21 12  1  0  0  0  0
 21 78  1  0  0  0  0
 22 26  1  0  0  0  0
 22 18  1  0  0  0  0
 23 27  1  0  0  0  0
 26 58  1  0  0  0  0
 26 59  1  0  0  0  0
 26 60  1  0  0  0  0
 27 61  1  0  0  0  0
 27 62  1  0  0  0  0
 27 63  1  0  0  0  0
 28 29  1  0  0  0  0
 28 30  1  0  0  0  0
 28 31  1  0  0  0  0
 29 55  1  0  0  0  0
 29 56  1  0  0  0  0
 29 57  1  0  0  0  0
 30 52  1  0  0  0  0
 30 53  1  0  0  0  0
 30 54  1  0  0  0  0
 31 49  1  0  0  0  0
 31 50  1  0  0  0  0
 31 51  1  0  0  0  0
 32 33  1  0  0  0  0
 32 34  1  0  0  0  0
 32 35  1  0  0  0  0
 33 70  1  0  0  0  0
 33 71  1  0  0  0  0
 33 72  1  0  0  0  0
 34 67  1  0  0  0  0
 34 68  1  0  0  0  0
 34 69  1  0  0  0  0
 35 64  1  0  0  0  0
 35 65  1  0  0  0  0
 35 66  1  0  0  0  0
 36 37  1  0  0  0  0
 36 38  1  0  0  0  0
 36 39  1  0  0  0  0
 37 43  1  0  0  0  0
 37 44  1  0  0  0  0
 37 45  1  0  0  0  0
 38 46  1  0  0  0  0
 38 47  1  0  0  0  0
 38 48  1  0  0  0  0
 39 40  1  0  0  0  0
 39 41  1  0  0  0  0
 39 42  1  0  0  0  0
 79 80  2  0  0  0  0
 79154  1  0  0  0  0
 80 81  1  0  0  0  0
 80101  1  0  0  0  0
 81 82  2  0  0  0  0
 81 85  1  0  0  0  0
 82 83  1  0  0  0  0
 83 84  2  0  0  0  0
 83153  1  0  0  0  0
 84110  1  0  0  0  0
 84 79  1  0  0  0  0
 85 86  1  0  0  0  0
 86 87  2  0  0  0  0
 87 88  1  0  0  0  0
 88 82  1  0  0  0  0
 88102  2  0  0  0  0
 89 90  2  0  0  0  0
 89 96  1  0  0  0  0
 89 85  1  0  0  0  0
 90 91  1  0  0  0  0
 91 92  1  0  0  0  0
 91103  2  0  0  0  0
 92 86  1  0  0  0  0
 92 93  2  0  0  0  0
 93 94  1  0  0  0  0
 93151  1  0  0  0  0
 94114  1  0  0  0  0
 94 95  2  0  0  0  0
 95 87  1  0  0  0  0
 95152  1  0  0  0  0
 96 97  2  0  0  0  0
 97 98  1  0  0  0  0
 97155  1  0  0  0  0
 98106  1  0  0  0  0
 98 99  2  0  0  0  0
 99 90  1  0  0  0  0
 99156  1  0  0  0  0
100104  1  0  0  0  0
100 96  1  0  0  0  0
101105  1  0  0  0  0
104136  1  0  0  0  0
104137  1  0  0  0  0
104138  1  0  0  0  0
105139  1  0  0  0  0
105140  1  0  0  0  0
105141  1  0  0  0  0
106107  1  0  0  0  0
106108  1  0  0  0  0
106109  1  0  0  0  0
107133  1  0  0  0  0
107134  1  0  0  0  0
107135  1  0  0  0  0
108130  1  0  0  0  0
108131  1  0  0  0  0
108132  1  0  0  0  0
109127  1  0  0  0  0
109128  1  0  0  0  0
109129  1  0  0  0  0
110111  1  0  0  0  0
110112  1  0  0  0  0
110113  1  0  0  0  0
111148  1  0  0  0  0
111149  1  0  0  0  0
111150  1  0  0  0  0
112145  1  0  0  0  0
112146  1  0  0  0  0
112147  1  0  0  0  0
113142  1  0  0  0  0
113143  1  0  0  0  0
113144  1  0  0  0  0
114115  1  0  0  0  0
114116  1  0  0  0  0
114117  1  0  0  0  0
115121  1  0  0  0  0
115122  1  0  0  0  0
115123  1  0  0  0  0
116124  1  0  0  0  0
116125  1  0  0  0  0
116126  1  0  0  0  0
117118  1  0  0  0  0
117119  1  0  0  0  0
117120  1  0  0  0  0
M  CHG  1   7  -1
M  CHG  1  85  -1
M  END
