 xtb: 6.7.1 (edcfbbe)
          12102416043D

111124  0     0  0            999 V2000
   -0.2925    3.2832    0.9117 C   0  0  0  0  0  0  0  0  0  0  0  0
    0.5196    2.1617    1.1648 C   0  0  0  0  0  0  0  0  0  0  0  0
    1.8998    2.0236    0.9982 C   0  0  0  0  0  0  0  0  0  0  0  0
    2.6124    3.2340    0.7611 C   0  0  0  0  0  0  0  0  0  0  0  0
    1.8300    4.4049    0.5201 C   0  0  0  0  0  0  0  0  0  0  0  0
    0.4588    4.4308    0.5840 C   0  0  0  0  0  0  0  0  0  0  0  0
    2.5827    0.7660    1.2503 C   0  0  0  0  0  0  0  0  0  0  0  0
    3.9505    0.9395    1.5266 C   0  0  0  0  0  0  0  0  0  0  0  0
    4.5853    2.2060    1.2703 C   0  0  0  0  0  0  0  0  0  0  0  0
    3.9394    3.2954    0.8342 N   0  0  0  0  0  0  0  0  0  0  0  0
    2.0912   -0.6065    1.3436 C   0  0  0  0  0  0  0  0  0  0  0  0
    2.8867   -1.5461    2.0829 C   0  0  0  0  0  0  0  0  0  0  0  0
    4.1395   -1.3009    2.4506 N   0  0  0  0  0  0  0  0  0  0  0  0
    4.7035   -0.1404    2.0949 C   0  0  0  0  0  0  0  0  0  0  0  0
    6.0743    0.0456    2.3437 C   0  0  0  0  0  0  0  0  0  0  0  0
    6.6726    1.2479    2.0238 C   0  0  0  0  0  0  0  0  0  0  0  0
    5.9716    2.3081    1.4932 C   0  0  0  0  0  0  0  0  0  0  0  0
    0.9807   -1.1911    0.6917 C   0  0  0  0  0  0  0  0  0  0  0  0
    0.3814   -2.4318    1.0461 C   0  0  0  0  0  0  0  0  0  0  0  0
    1.1380   -3.2578    1.8885 C   0  0  0  0  0  0  0  0  0  0  0  0
    2.3535   -2.8423    2.3621 C   0  0  0  0  0  0  0  0  0  0  0  0
   -0.0543    1.0820    1.6347 O   0  0  0  0  0  0  0  0  0  0  0  0
   -0.3899    5.9897    0.1884 S   0  0  0  0  0  0  0  0  0  0  0  0
    0.4201   -4.8715    2.3423 S   0  0  0  0  0  0  0  0  0  0  0  0
    8.4546    1.4200    2.3947 S   0  0  0  0  0  0  0  0  0  0  0  0
   -1.0483   -2.6383    0.6892 C   0  0  0  0  0  0  0  0  0  0  0  0
   -1.9012   -1.5342    0.8557 C   0  0  0  0  0  0  0  0  0  0  0  0
   -3.2301   -1.4051    0.4506 C   0  0  0  0  0  0  0  0  0  0  0  0
   -3.8732   -2.6162    0.0608 C   0  0  0  0  0  0  0  0  0  0  0  0
   -3.0515   -3.7801   -0.0692 C   0  0  0  0  0  0  0  0  0  0  0  0
   -1.7083   -3.7853    0.2159 C   0  0  0  0  0  0  0  0  0  0  0  0
   -3.9564   -0.1576    0.6146 C   0  0  0  0  0  0  0  0  0  0  0  0
   -5.3503   -0.3467    0.6237 C   0  0  0  0  0  0  0  0  0  0  0  0
   -5.9140   -1.6083    0.2180 C   0  0  0  0  0  0  0  0  0  0  0  0
   -5.1894   -2.6828   -0.1224 N   0  0  0  0  0  0  0  0  0  0  0  0
   -3.4976    1.2100    0.8585 C   0  0  0  0  0  0  0  0  0  0  0  0
   -4.4308    2.1062    1.4800 C   0  0  0  0  0  0  0  0  0  0  0  0
   -5.7307    1.8511    1.5815 N   0  0  0  0  0  0  0  0  0  0  0  0
   -6.2089    0.7097    1.0727 C   0  0  0  0  0  0  0  0  0  0  0  0
   -7.6010    0.5186    1.0346 C   0  0  0  0  0  0  0  0  0  0  0  0
   -8.1161   -0.6742    0.5685 C   0  0  0  0  0  0  0  0  0  0  0  0
   -7.3161   -1.7239    0.1744 C   0  0  0  0  0  0  0  0  0  0  0  0
   -2.2855    1.8311    0.4645 C   0  0  0  0  0  0  0  0  0  0  0  0
   -1.7660    3.0471    0.9976 C   0  0  0  0  0  0  0  0  0  0  0  0
   -2.6835    3.8095    1.7343 C   0  0  0  0  0  0  0  0  0  0  0  0
   -3.9660    3.3754    1.9367 C   0  0  0  0  0  0  0  0  0  0  0  0
   -1.4362   -0.4754    1.4679 O   0  0  0  0  0  0  0  0  0  0  0  0
   -0.6136   -5.1764   -0.1966 S   0  0  0  0  0  0  0  0  0  0  0  0
   -2.1199    5.3874    2.4386 S   0  0  0  0  0  0  0  0  0  0  0  0
   -9.9347   -0.8208    0.4718 S   0  0  0  0  0  0  0  0  0  0  0  0
   -0.6497    0.3242    0.5623 B   0  0  0  0  0  0  0  0  0  0  0  0
    8.8286    2.7075    1.8370 O   0  0  0  0  0  0  0  0  0  0  0  0
    8.2768    1.6142    4.0529 O   0  0  0  0  0  0  0  0  0  0  0  0
    7.6918    2.8190    4.4714 C   0  0  0  0  0  0  0  0  0  0  0  0
    1.4486   -5.8141    1.4044 O   0  0  0  0  0  0  0  0  0  0  0  0
    2.6302   -6.2752    2.0077 C   0  0  0  0  0  0  0  0  0  0  0  0
    0.8411   -5.0782    3.7192 O   0  0  0  0  0  0  0  0  0  0  0  0
   -1.4590   -6.3535   -0.1371 O   0  0  0  0  0  0  0  0  0  0  0  0
   -0.4822   -4.7554   -1.8249 O   0  0  0  0  0  0  0  0  0  0  0  0
   -1.5721   -5.0539   -2.6552 C   0  0  0  0  0  0  0  0  0  0  0  0
  -10.1813   -2.2112    0.1351 O   0  0  0  0  0  0  0  0  0  0  0  0
  -10.1096    0.0788   -0.9401 O   0  0  0  0  0  0  0  0  0  0  0  0
   -9.6423   -0.5306   -2.1139 C   0  0  0  0  0  0  0  0  0  0  0  0
   -2.9168    5.5522    3.6434 O   0  0  0  0  0  0  0  0  0  0  0  0
   -2.8288    6.3977    1.2817 O   0  0  0  0  0  0  0  0  0  0  0  0
   -4.1824    6.7189    1.4708 C   0  0  0  0  0  0  0  0  0  0  0  0
    0.6001    6.7946   -0.5111 O   0  0  0  0  0  0  0  0  0  0  0  0
   -1.3100    5.1942   -0.9708 O   0  0  0  0  0  0  0  0  0  0  0  0
   -2.0498    6.0567   -1.7940 C   0  0  0  0  0  0  0  0  0  0  0  0
    0.3611   -0.4417   -0.2830 N   0  0  0  0  0  0  0  0  0  0  0  0
    1.2300   -0.8701   -2.5197 C   0  0  0  0  0  0  0  0  0  0  0  0
    0.0830   -1.1208   -1.5364 C   0  0  0  0  0  0  0  0  0  0  0  0
   -1.4940    1.1302   -0.4186 N   0  0  0  0  0  0  0  0  0  0  0  0
   -1.9320    1.6763   -2.7535 C   0  0  0  0  0  0  0  0  0  0  0  0
   -0.9910    1.8741   -1.5609 C   0  0  0  0  0  0  0  0  0  0  0  0
   -1.1834   -5.2443   -3.6561 H   0  0  0  0  0  0  0  0  0  0  0  0
   -2.2789   -4.2183   -2.6829 H   0  0  0  0  0  0  0  0  0  0  0  0
   -2.0804   -5.9487   -2.2817 H   0  0  0  0  0  0  0  0  0  0  0  0
    2.7599   -7.3248    1.7409 H   0  0  0  0  0  0  0  0  0  0  0  0
    2.5458   -6.1833    3.0962 H   0  0  0  0  0  0  0  0  0  0  0  0
    3.4857   -5.6930    1.6543 H   0  0  0  0  0  0  0  0  0  0  0  0
    8.0312    3.0125    5.4885 H   0  0  0  0  0  0  0  0  0  0  0  0
    6.5995    2.7497    4.4521 H   0  0  0  0  0  0  0  0  0  0  0  0
    8.0137    3.6369    3.8179 H   0  0  0  0  0  0  0  0  0  0  0  0
    1.0293   -1.3869   -3.4552 H   0  0  0  0  0  0  0  0  0  0  0  0
    2.1600   -1.2497   -2.1019 H   0  0  0  0  0  0  0  0  0  0  0  0
    1.3556    0.1904   -2.7219 H   0  0  0  0  0  0  0  0  0  0  0  0
   -0.0025   -2.2053   -1.4096 H   0  0  0  0  0  0  0  0  0  0  0  0
   -0.8588   -0.7505   -1.9385 H   0  0  0  0  0  0  0  0  0  0  0  0
   -1.5598    2.2346   -3.6096 H   0  0  0  0  0  0  0  0  0  0  0  0
   -2.9255    2.0411   -2.5004 H   0  0  0  0  0  0  0  0  0  0  0  0
   -2.0147    0.6276   -3.0275 H   0  0  0  0  0  0  0  0  0  0  0  0
   -0.9436    2.9476   -1.3605 H   0  0  0  0  0  0  0  0  0  0  0  0
    0.0128    1.5260   -1.7988 H   0  0  0  0  0  0  0  0  0  0  0  0
   -4.3290    7.7514    1.1506 H   0  0  0  0  0  0  0  0  0  0  0  0
   -4.4343    6.6300    2.5333 H   0  0  0  0  0  0  0  0  0  0  0  0
   -4.8238    6.0526    0.8861 H   0  0  0  0  0  0  0  0  0  0  0  0
  -10.1954   -0.1028   -2.9496 H   0  0  0  0  0  0  0  0  0  0  0  0
   -9.8240   -1.6100   -2.0713 H   0  0  0  0  0  0  0  0  0  0  0  0
   -8.5708   -0.3501   -2.2473 H   0  0  0  0  0  0  0  0  0  0  0  0
   -2.8379    6.5563   -1.2244 H   0  0  0  0  0  0  0  0  0  0  0  0
   -2.4923    5.4451   -2.5804 H   0  0  0  0  0  0  0  0  0  0  0  0
   -1.3925    6.8102   -2.2386 H   0  0  0  0  0  0  0  0  0  0  0  0
   -8.2491    1.3153    1.3630 H   0  0  0  0  0  0  0  0  0  0  0  0
   -7.7590   -2.6544   -0.1447 H   0  0  0  0  0  0  0  0  0  0  0  0
   -4.6640    3.9871    2.4868 H   0  0  0  0  0  0  0  0  0  0  0  0
   -3.5263   -4.7000   -0.3745 H   0  0  0  0  0  0  0  0  0  0  0  0
    2.9441   -3.4919    2.9885 H   0  0  0  0  0  0  0  0  0  0  0  0
    6.6396   -0.7567    2.7903 H   0  0  0  0  0  0  0  0  0  0  0  0
    6.4767    3.2333    1.2634 H   0  0  0  0  0  0  0  0  0  0  0  0
    2.3484    5.3201    0.2764 H   0  0  0  0  0  0  0  0  0  0  0  0
  1  2  4  0  0  0  0
  2  3  4  0  0  0  0
  3  4  4  0  0  0  0
  4  5  4  0  0  0  0
  1  6  4  0  0  0  0
  5  6  2  0  0  0  0
  3  7  1  0  0  0  0
  7  8  4  0  0  0  0
  8  9  1  0  0  0  0
  4 10  4  0  0  0  0
  9 10  4  0  0  0  0
  7 11  1  0  0  0  0
 11 12  1  0  0  0  0
 12 13  4  0  0  0  0
  8 14  1  0  0  0  0
 13 14  4  0  0  0  0
 14 15  4  0  0  0  0
 15 16  4  0  0  0  0
  9 17  4  0  0  0  0
 16 17  4  0  0  0  0
 11 18  4  0  0  0  0
 18 19  4  0  0  0  0
 19 20  4  0  0  0  0
 12 21  4  0  0  0  0
 20 21  2  0  0  0  0
  2 22  1  0  0  0  0
  6 23  1  0  0  0  0
 20 24  1  0  0  0  0
 16 25  1  0  0  0  0
 19 26  1  0  0  0  0
 26 27  4  0  0  0  0
 27 28  4  0  0  0  0
 28 29  4  0  0  0  0
 29 30  4  0  0  0  0
 26 31  4  0  0  0  0
 30 31  2  0  0  0  0
 28 32  1  0  0  0  0
 32 33  4  0  0  0  0
 33 34  1  0  0  0  0
 29 35  4  0  0  0  0
 34 35  4  0  0  0  0
 32 36  1  0  0  0  0
 36 37  1  0  0  0  0
 37 38  4  0  0  0  0
 33 39  1  0  0  0  0
 38 39  4  0  0  0  0
 39 40  4  0  0  0  0
 40 41  4  0  0  0  0
 34 42  4  0  0  0  0
 41 42  4  0  0  0  0
 36 43  4  0  0  0  0
  1 44  1  0  0  0  0
 43 44  4  0  0  0  0
 44 45  4  0  0  0  0
 37 46  4  0  0  0  0
 45 46  2  0  0  0  0
 27 47  1  0  0  0  0
 31 48  1  0  0  0  0
 45 49  1  0  0  0  0
 41 50  1  0  0  0  0
 22 51  1  0  0  0  0
 47 51  1  0  0  0  0
 25 52  2  0  0  0  0
 25 53  1  0  0  0  0
 53 54  1  0  0  0  0
 24 55  1  0  0  0  0
 55 56  1  0  0  0  0
 24 57  2  0  0  0  0
 48 58  2  0  0  0  0
 48 59  1  0  0  0  0
 59 60  1  0  0  0  0
 50 61  2  0  0  0  0
 50 62  1  0  0  0  0
 62 63  1  0  0  0  0
 49 64  2  0  0  0  0
 49 65  1  0  0  0  0
 65 66  1  0  0  0  0
 23 67  2  0  0  0  0
 23 68  1  0  0  0  0
 68 69  1  0  0  0  0
 18 70  1  0  0  0  0
 51 70  1  0  0  0  0
 70 72  1  0  0  0  0
 71 72  1  0  0  0  0
 43 73  1  0  0  0  0
 51 73  1  0  0  0  0
 73 75  1  0  0  0  0
 74 75  1  0  0  0  0
 60 76  1  0  0  0  0
 60 77  1  0  0  0  0
 60 78  1  0  0  0  0
 56 79  1  0  0  0  0
 56 80  1  0  0  0  0
 56 81  1  0  0  0  0
 54 82  1  0  0  0  0
 54 83  1  0  0  0  0
 54 84  1  0  0  0  0
 71 85  1  0  0  0  0
 71 86  1  0  0  0  0
 71 87  1  0  0  0  0
 72 88  1  0  0  0  0
 72 89  1  0  0  0  0
 74 90  1  0  0  0  0
 74 91  1  0  0  0  0
 74 92  1  0  0  0  0
 75 93  1  0  0  0  0
 75 94  1  0  0  0  0
 66 95  1  0  0  0  0
 66 96  1  0  0  0  0
 66 97  1  0  0  0  0
 63 98  1  0  0  0  0
 63 99  1  0  0  0  0
 63100  1  0  0  0  0
 69101  1  0  0  0  0
 69102  1  0  0  0  0
 69103  1  0  0  0  0
 40104  1  0  0  0  0
 42105  1  0  0  0  0
 46106  1  0  0  0  0
 30107  1  0  0  0  0
 21108  1  0  0  0  0
 15109  1  0  0  0  0
 17110  1  0  0  0  0
  5111  1  0  0  0  0
M  CHG  1   1  -1
M  END
