 energy: -216.730896512864 gnorm: 0.000744692940 xtb: 6.7.1 (edcfbbe)
          02282515173D

111122  0     0  0            999 V2000
   -0.2926    3.2832    0.9118 C   0  0  0  0  0  0  0  0  0  0  0  0
    0.5195    2.1617    1.1650 C   0  0  0  0  0  0  0  0  0  0  0  0
    1.8998    2.0237    0.9986 C   0  0  0  0  0  0  0  0  0  0  0  0
    2.6122    3.2343    0.7618 C   0  0  0  0  0  0  0  0  0  0  0  0
    1.8298    4.4053    0.5208 C   0  0  0  0  0  0  0  0  0  0  0  0
    0.4585    4.4310    0.5843 C   0  0  0  0  0  0  0  0  0  0  0  0
    2.5827    0.7662    1.2508 C   0  0  0  0  0  0  0  0  0  0  0  0
    3.9505    0.9397    1.5272 C   0  0  0  0  0  0  0  0  0  0  0  0
    4.5852    2.2063    1.2709 C   0  0  0  0  0  0  0  0  0  0  0  0
    3.9392    3.2958    0.8351 N   0  0  0  0  0  0  0  0  0  0  0  0
    2.0913   -0.6063    1.3438 C   0  0  0  0  0  0  0  0  0  0  0  0
    2.8868   -1.5459    2.0833 C   0  0  0  0  0  0  0  0  0  0  0  0
    4.1394   -1.3006    2.4512 N   0  0  0  0  0  0  0  0  0  0  0  0
    4.7034   -0.1402    2.0955 C   0  0  0  0  0  0  0  0  0  0  0  0
    6.0743    0.0457    2.3439 C   0  0  0  0  0  0  0  0  0  0  0  0
    6.6726    1.2478    2.0238 C   0  0  0  0  0  0  0  0  0  0  0  0
    5.9716    2.3082    1.4935 C   0  0  0  0  0  0  0  0  0  0  0  0
    0.9810   -1.1910    0.6917 C   0  0  0  0  0  0  0  0  0  0  0  0
    0.3816   -2.4318    1.0459 C   0  0  0  0  0  0  0  0  0  0  0  0
    1.1381   -3.2577    1.8885 C   0  0  0  0  0  0  0  0  0  0  0  0
    2.3535   -2.8422    2.3624 C   0  0  0  0  0  0  0  0  0  0  0  0
   -0.0543    1.0820    1.6348 O   0  0  0  0  0  0  0  0  0  0  0  0
   -0.3914    5.9891    0.1886 S   0  0  0  0  0  0  0  0  0  0  0  0
    0.4204   -4.8716    2.3418 S   0  0  0  0  0  0  0  0  0  0  0  0
    8.4548    1.4191    2.3935 S   0  0  0  0  0  0  0  0  0  0  0  0
   -1.0480   -2.6384    0.6887 C   0  0  0  0  0  0  0  0  0  0  0  0
   -1.9009   -1.5344    0.8554 C   0  0  0  0  0  0  0  0  0  0  0  0
   -3.2298   -1.4052    0.4504 C   0  0  0  0  0  0  0  0  0  0  0  0
   -3.8728   -2.6162    0.0602 C   0  0  0  0  0  0  0  0  0  0  0  0
   -3.0511   -3.7800   -0.0702 C   0  0  0  0  0  0  0  0  0  0  0  0
   -1.7079   -3.7853    0.2150 C   0  0  0  0  0  0  0  0  0  0  0  0
   -3.9562   -0.1577    0.6147 C   0  0  0  0  0  0  0  0  0  0  0  0
   -5.3500   -0.3470    0.6239 C   0  0  0  0  0  0  0  0  0  0  0  0
   -5.9136   -1.6084    0.2178 C   0  0  0  0  0  0  0  0  0  0  0  0
   -5.1891   -2.6828   -0.1230 N   0  0  0  0  0  0  0  0  0  0  0  0
   -3.4975    1.2099    0.8585 C   0  0  0  0  0  0  0  0  0  0  0  0
   -4.4309    2.1065    1.4792 C   0  0  0  0  0  0  0  0  0  0  0  0
   -5.7306    1.8511    1.5811 N   0  0  0  0  0  0  0  0  0  0  0  0
   -6.2087    0.7094    1.0732 C   0  0  0  0  0  0  0  0  0  0  0  0
   -7.6007    0.5179    1.0360 C   0  0  0  0  0  0  0  0  0  0  0  0
   -8.1158   -0.6747    0.5696 C   0  0  0  0  0  0  0  0  0  0  0  0
   -7.3157   -1.7240    0.1746 C   0  0  0  0  0  0  0  0  0  0  0  0
   -2.2853    1.8310    0.4645 C   0  0  0  0  0  0  0  0  0  0  0  0
   -1.7660    3.0471    0.9974 C   0  0  0  0  0  0  0  0  0  0  0  0
   -2.6838    3.8101    1.7332 C   0  0  0  0  0  0  0  0  0  0  0  0
   -3.9664    3.3761    1.9350 C   0  0  0  0  0  0  0  0  0  0  0  0
   -1.4358   -0.4758    1.4678 O   0  0  0  0  0  0  0  0  0  0  0  0
   -0.6135   -5.1769   -0.1968 S   0  0  0  0  0  0  0  0  0  0  0  0
   -2.1213    5.3880    2.4383 S   0  0  0  0  0  0  0  0  0  0  0  0
   -9.9346   -0.8214    0.4731 S   0  0  0  0  0  0  0  0  0  0  0  0
   -0.6496    0.3240    0.5625 B   0  0  0  0  0  0  0  0  0  0  0  0
    8.8295    2.7059    1.8347 O   0  0  0  0  0  0  0  0  0  0  0  0
    8.2781    1.6145    4.0516 O   0  0  0  0  0  0  0  0  0  0  0  0
    7.6942    2.8201    4.4695 C   0  0  0  0  0  0  0  0  0  0  0  0
    1.4496   -5.8137    1.4037 O   0  0  0  0  0  0  0  0  0  0  0  0
    2.6299   -6.2766    2.0079 C   0  0  0  0  0  0  0  0  0  0  0  0
    0.8413   -5.0788    3.7187 O   0  0  0  0  0  0  0  0  0  0  0  0
   -1.4593   -6.3537   -0.1366 O   0  0  0  0  0  0  0  0  0  0  0  0
   -0.4820   -4.7570   -1.8254 O   0  0  0  0  0  0  0  0  0  0  0  0
   -1.5716   -5.0568   -2.6556 C   0  0  0  0  0  0  0  0  0  0  0  0
  -10.1811   -2.2114    0.1345 O   0  0  0  0  0  0  0  0  0  0  0  0
  -10.1096    0.0805   -0.9372 O   0  0  0  0  0  0  0  0  0  0  0  0
   -9.6444   -0.5275   -2.1126 C   0  0  0  0  0  0  0  0  0  0  0  0
   -2.9185    5.5514    3.6431 O   0  0  0  0  0  0  0  0  0  0  0  0
   -2.8306    6.3990    1.2821 O   0  0  0  0  0  0  0  0  0  0  0  0
   -4.1836    6.7218    1.4727 C   0  0  0  0  0  0  0  0  0  0  0  0
    0.5970    6.7945   -0.5128 O   0  0  0  0  0  0  0  0  0  0  0  0
   -1.3125    5.1923   -0.9689 O   0  0  0  0  0  0  0  0  0  0  0  0
   -2.0507    6.0540   -1.7942 C   0  0  0  0  0  0  0  0  0  0  0  0
    0.3615   -0.4415   -0.2830 N   0  0  0  0  0  0  0  0  0  0  0  0
    1.2308   -0.8691   -2.5196 C   0  0  0  0  0  0  0  0  0  0  0  0
    0.0838   -1.1205   -1.5365 C   0  0  0  0  0  0  0  0  0  0  0  0
   -1.4940    1.1300   -0.4186 N   0  0  0  0  0  0  0  0  0  0  0  0
   -1.9312    1.6757   -2.7536 C   0  0  0  0  0  0  0  0  0  0  0  0
   -0.9907    1.8740   -1.5607 C   0  0  0  0  0  0  0  0  0  0  0  0
   -1.1827   -5.2487   -3.6561 H   0  0  0  0  0  0  0  0  0  0  0  0
   -2.2784   -4.2212   -2.6848 H   0  0  0  0  0  0  0  0  0  0  0  0
   -2.0800   -5.9510   -2.2809 H   0  0  0  0  0  0  0  0  0  0  0  0
    2.7590   -7.3260    1.7399 H   0  0  0  0  0  0  0  0  0  0  0  0
    2.5442   -6.1861    3.0965 H   0  0  0  0  0  0  0  0  0  0  0  0
    3.4865   -5.6948    1.6565 H   0  0  0  0  0  0  0  0  0  0  0  0
    8.0344    3.0143    5.4861 H   0  0  0  0  0  0  0  0  0  0  0  0
    6.6019    2.7515    4.4511 H   0  0  0  0  0  0  0  0  0  0  0  0
    8.0162    3.6372    3.8150 H   0  0  0  0  0  0  0  0  0  0  0  0
    1.0307   -1.3864   -3.4550 H   0  0  0  0  0  0  0  0  0  0  0  0
    2.1610   -1.2479   -2.1015 H   0  0  0  0  0  0  0  0  0  0  0  0
    1.3557    0.1913   -2.7221 H   0  0  0  0  0  0  0  0  0  0  0  0
   -0.0012   -2.2050   -1.4099 H   0  0  0  0  0  0  0  0  0  0  0  0
   -0.8582   -0.7506   -1.9386 H   0  0  0  0  0  0  0  0  0  0  0  0
   -1.5592    2.2345   -3.6095 H   0  0  0  0  0  0  0  0  0  0  0  0
   -2.9251    2.0397   -2.5006 H   0  0  0  0  0  0  0  0  0  0  0  0
   -2.0131    0.6271   -3.0279 H   0  0  0  0  0  0  0  0  0  0  0  0
   -0.9439    2.9475   -1.3604 H   0  0  0  0  0  0  0  0  0  0  0  0
    0.0133    1.5262   -1.7982 H   0  0  0  0  0  0  0  0  0  0  0  0
   -4.3286    7.7559    1.1561 H   0  0  0  0  0  0  0  0  0  0  0  0
   -4.4355    6.6296    2.5348 H   0  0  0  0  0  0  0  0  0  0  0  0
   -4.8263    6.0584    0.8857 H   0  0  0  0  0  0  0  0  0  0  0  0
  -10.1989   -0.0986   -2.9471 H   0  0  0  0  0  0  0  0  0  0  0  0
   -9.8257   -1.6073   -2.0716 H   0  0  0  0  0  0  0  0  0  0  0  0
   -8.5730   -0.3468   -2.2480 H   0  0  0  0  0  0  0  0  0  0  0  0
   -2.8385    6.5557   -1.2261 H   0  0  0  0  0  0  0  0  0  0  0  0
   -2.4934    5.4412   -2.5795 H   0  0  0  0  0  0  0  0  0  0  0  0
   -1.3920    6.8061   -2.2394 H   0  0  0  0  0  0  0  0  0  0  0  0
   -8.2488    1.3144    1.3651 H   0  0  0  0  0  0  0  0  0  0  0  0
   -7.7587   -2.6544   -0.1451 H   0  0  0  0  0  0  0  0  0  0  0  0
   -4.6651    3.9882    2.4838 H   0  0  0  0  0  0  0  0  0  0  0  0
   -3.5260   -4.6998   -0.3757 H   0  0  0  0  0  0  0  0  0  0  0  0
    2.9440   -3.4919    2.9887 H   0  0  0  0  0  0  0  0  0  0  0  0
    6.6396   -0.7567    2.7903 H   0  0  0  0  0  0  0  0  0  0  0  0
    6.4767    3.2333    1.2634 H   0  0  0  0  0  0  0  0  0  0  0  0
    2.3482    5.3204    0.2773 H   0  0  0  0  0  0  0  0  0  0  0  0
  1  2  2  0  0  0  0
  2  3  1  0  0  0  0
  3  4  2  0  0  0  0
  3  7  1  0  0  0  0
  4  5  1  0  0  0  0
  5  6  2  0  0  0  0
  5111  1  0  0  0  0
  6  1  1  0  0  0  0
  6 23  1  0  0  0  0
  7  8  1  0  0  0  0
  7 11  2  0  0  0  0
  8  9  1  0  0  0  0
  9 10  2  0  0  0  0
 10  4  1  0  0  0  0
 11 12  1  0  0  0  0
 11 18  1  0  0  0  0
 12 13  2  0  0  0  0
 13 14  1  0  0  0  0
 14  8  1  0  0  0  0
 14 15  2  0  0  0  0
 15 16  1  0  0  0  0
 15109  1  0  0  0  0
 16 17  2  0  0  0  0
 16 25  1  0  0  0  0
 17  9  1  0  0  0  0
 17110  1  0  0  0  0
 18 70  1  0  0  0  0
 18 19  2  0  0  0  0
 19 20  1  0  0  0  0
 20 21  2  0  0  0  0
 20 24  1  0  0  0  0
 21 12  1  0  0  0  0
 21108  1  0  0  0  0
 22  2  1  0  0  0  0
 23 67  2  0  0  0  0
 23 68  1  0  0  0  0
 24 55  1  0  0  0  0
 24 57  2  0  0  0  0
 25 52  2  0  0  0  0
 25 53  1  0  0  0  0
 26 27  2  0  0  0  0
 27 28  1  0  0  0  0
 27 47  1  0  0  0  0
 28 29  2  0  0  0  0
 28 32  1  0  0  0  0
 29 30  1  0  0  0  0
 30 31  2  0  0  0  0
 30107  1  0  0  0  0
 31 26  1  0  0  0  0
 31 48  1  0  0  0  0
 32 36  2  0  0  0  0
 33 32  1  0  0  0  0
 33 34  1  0  0  0  0
 34 35  2  0  0  0  0
 35 29  1  0  0  0  0
 36 37  1  0  0  0  0
 36 43  1  0  0  0  0
 37 38  2  0  0  0  0
 38 39  1  0  0  0  0
 39 33  1  0  0  0  0
 39 40  2  0  0  0  0
 40 41  1  0  0  0  0
 40104  1  0  0  0  0
 41 42  2  0  0  0  0
 41 50  1  0  0  0  0
 42 34  1  0  0  0  0
 42105  1  0  0  0  0
 43 73  1  0  0  0  0
 43 44  2  0  0  0  0
 44 45  1  0  0  0  0
 45 46  2  0  0  0  0
 45 49  1  0  0  0  0
 46 37  1  0  0  0  0
 46106  1  0  0  0  0
 48 58  2  0  0  0  0
 48 59  1  0  0  0  0
 49 64  2  0  0  0  0
 49 65  1  0  0  0  0
 50 61  2  0  0  0  0
 50 62  1  0  0  0  0
 51 70  1  0  0  0  0
 51 73  1  0  0  0  0
 51 22  1  0  0  0  0
 51 47  1  0  0  0  0
 53 54  1  0  0  0  0
 54 82  1  0  0  0  0
 54 83  1  0  0  0  0
 54 84  1  0  0  0  0
 55 56  1  0  0  0  0
 56 79  1  0  0  0  0
 56 80  1  0  0  0  0
 56 81  1  0  0  0  0
 59 60  1  0  0  0  0
 60 76  1  0  0  0  0
 60 77  1  0  0  0  0
 60 78  1  0  0  0  0
 62 63  1  0  0  0  0
 63 98  1  0  0  0  0
 63 99  1  0  0  0  0
 63100  1  0  0  0  0
 65 66  1  0  0  0  0
 66 95  1  0  0  0  0
 66 96  1  0  0  0  0
 66 97  1  0  0  0  0
 68 69  1  0  0  0  0
 69101  1  0  0  0  0
 69102  1  0  0  0  0
 69103  1  0  0  0  0
 70 72  1  0  0  0  0
 71 72  1  0  0  0  0
 71 85  1  0  0  0  0
 71 86  1  0  0  0  0
 71 87  1  0  0  0  0
 72 88  1  0  0  0  0
 72 89  1  0  0  0  0
 73 75  1  0  0  0  0
 74 75  1  0  0  0  0
 74 90  1  0  0  0  0
 74 91  1  0  0  0  0
 74 92  1  0  0  0  0
 75 93  1  0  0  0  0
 75 94  1  0  0  0  0
M  CHG  1   1  -1
M  END
