
 OpenBabel11012412163D

111122  0  0  0  0  0  0  0  0999 V2000
    0.0797    3.7219    1.6365 C   0  5  0  0  0  0  0  0  0  0  0  0
    0.6467    2.5026    1.7369 C   0  0  0  0  0  0  0  0  0  0  0  0
    2.0737    2.3468    1.1330 C   0  0  0  0  0  0  0  0  0  0  0  0
    2.6098    3.4286    0.4581 C   0  0  0  0  0  0  0  0  0  0  0  0
    1.8479    4.6445    0.2388 C   0  0  0  0  0  0  0  0  0  0  0  0
    0.6507    4.8093    0.7973 C   0  0  0  0  0  0  0  0  0  0  0  0
    3.0277    1.2049    1.3782 C   0  0  0  0  0  0  0  0  0  0  0  0
    4.4924    1.5904    1.2693 C   0  5  0  0  0  0  0  0  0  0  0  0
    4.8437    2.6328    0.2853 C   0  0  0  0  0  0  0  0  0  0  0  0
    3.9496    3.4764   -0.0496 N   0  0  0  0  0  0  0  0  0  0  0  0
    2.7416   -0.0588    1.7740 C   0  0  0  0  0  0  0  0  0  0  0  0
    3.8794   -0.9071    2.3061 C   0  0  0  0  0  0  0  0  0  0  0  0
    5.1314   -0.5921    2.1936 N   0  0  0  0  0  0  0  0  0  0  0  0
    5.5313    0.5724    1.5306 C   0  0  0  0  0  0  0  0  0  0  0  0
    6.8056    0.7462    1.1279 C   0  0  0  0  0  0  0  0  0  0  0  0
    7.2033    1.9328    0.3084 C   0  0  0  0  0  0  0  0  0  0  0  0
    6.2602    2.8010   -0.1255 C   0  0  0  0  0  0  0  0  0  0  0  0
    1.3694   -0.6924    1.7265 C   0  0  0  0  0  0  0  0  0  0  0  0
    1.2381   -1.9265    2.3047 C   0  5  0  0  0  0  0  0  0  0  0  0
    2.3457   -2.6310    3.0377 C   0  0  0  0  0  0  0  0  0  0  0  0
    3.5872   -2.1334    3.0079 C   0  0  0  0  0  0  0  0  0  0  0  0
   -0.1540    1.5133    2.3042 O   0  0  0  0  0  0  0  0  0  0  0  0
   -0.1603    5.9865    0.4111 S   0  0  1  0  0  0  0  0  0  0  0  0
    2.1804   -3.9611    3.6739 S   0  0  1  0  0  0  0  0  0  0  0  0
    8.6416    2.1439   -0.0028 S   0  0  1  0  0  0  0  0  0  0  0  0
   -1.9825   -2.6775    1.4025 C   0  5  0  0  0  0  0  0  0  0  0  0
   -2.4177   -1.4093    1.2607 C   0  0  0  0  0  0  0  0  0  0  0  0
   -3.5132   -1.1639    0.1546 C   0  0  0  0  0  0  0  0  0  0  0  0
   -3.8034   -2.2017   -0.7060 C   0  0  0  0  0  0  0  0  0  0  0  0
   -3.1323   -3.4777   -0.6001 C   0  0  0  0  0  0  0  0  0  0  0  0
   -2.3173   -3.7404    0.4200 C   0  0  0  0  0  0  0  0  0  0  0  0
   -4.4936   -0.0104    0.0801 C   0  0  0  0  0  0  0  0  0  0  0  0
   -5.8117   -0.3169   -0.5904 C   0  5  0  0  0  0  0  0  0  0  0  0
   -5.7882   -1.3037   -1.6766 C   0  0  0  0  0  0  0  0  0  0  0  0
   -4.8547   -2.1731   -1.6860 N   0  0  0  0  0  0  0  0  0  0  0  0
   -4.3903    1.1788    0.6887 C   0  0  0  0  0  0  0  0  0  0  0  0
   -5.6287    2.0209    0.8786 C   0  0  0  0  0  0  0  0  0  0  0  0
   -6.7494    1.7921    0.2645 N   0  0  0  0  0  0  0  0  0  0  0  0
   -6.8624    0.7272   -0.6471 C   0  0  0  0  0  0  0  0  0  0  0  0
   -7.8770    0.6486   -1.5338 C   0  0  0  0  0  0  0  0  0  0  0  0
   -7.9283   -0.4517   -2.5534 C   0  0  0  0  0  0  0  0  0  0  0  0
   -6.9217   -1.3552   -2.6304 C   0  0  0  0  0  0  0  0  0  0  0  0
   -3.1020    1.6934    1.2113 C   0  0  0  0  0  0  0  0  0  0  0  0
   -3.1467    2.7678    2.0388 C   0  5  0  0  0  0  0  0  0  0  0  0
   -4.4356    3.4052    2.4744 C   0  0  0  0  0  0  0  0  0  0  0  0
   -5.5949    3.0700    1.8824 C   0  0  0  0  0  0  0  0  0  0  0  0
   -1.7423   -0.4749    2.0515 O   0  0  0  0  0  0  0  0  0  0  0  0
   -1.7348   -5.0822    0.5083 S   0  0  1  0  0  0  0  0  0  0  0  0
   -4.4397    4.5047    3.4560 S   0  0  2  0  0  0  0  0  0  0  0  0
   -9.0866   -0.5495   -3.4835 S   0  0  2  0  0  0  0  0  0  0  0  0
   -0.8462    0.5357    1.4099 B   0  5  2  0  0  0  0  0  0  0  0  0
    9.0032    3.1077   -0.6656 O   0  0  0  0  0  0  0  0  0  0  0  0
    9.5662    1.3410    0.5719 O   0  0  0  0  0  0  0  0  0  0  0  0
   10.4821    1.8343    1.4764 C   0  0  0  0  0  0  0  0  0  0  0  0
    1.0838   -4.7060    3.4121 O   0  0  0  0  0  0  0  0  0  0  0  0
    1.2119   -6.0645    3.2009 C   0  0  0  0  0  0  0  0  0  0  0  0
    3.1031   -4.4548    4.3100 O   0  0  0  0  0  0  0  0  0  0  0  0
   -1.0765   -5.3983    1.4823 O   0  0  0  0  0  0  0  0  0  0  0  0
   -1.9616   -5.9705   -0.4870 O   0  0  0  0  0  0  0  0  0  0  0  0
   -2.4427   -7.2350   -0.2646 C   0  0  0  0  0  0  0  0  0  0  0  0
  -10.0399    0.2046   -3.3665 O   0  0  0  0  0  0  0  0  0  0  0  0
   -9.1050   -1.5060   -4.4433 O   0  0  0  0  0  0  0  0  0  0  0  0
   -9.9406   -2.5974   -4.3742 C   0  0  0  0  0  0  0  0  0  0  0  0
   -5.4883    5.0382    3.7936 O   0  0  0  0  0  0  0  0  0  0  0  0
   -3.2599    5.0020    3.8817 O   0  0  0  0  0  0  0  0  0  0  0  0
   -3.0531    6.3588    3.9396 C   0  0  0  0  0  0  0  0  0  0  0  0
    0.2983    6.8231   -0.3570 O   0  0  0  0  0  0  0  0  0  0  0  0
   -1.4660    6.0388    0.7668 O   0  0  0  0  0  0  0  0  0  0  0  0
   -2.4066    6.7000    0.0049 C   0  0  0  0  0  0  0  0  0  0  0  0
    0.3705   -0.2363    0.7518 N   0  0  0  0  0  0  0  0  0  0  0  0
    1.4075   -1.6611   -1.0573 C   0  0  0  0  0  0  0  0  0  0  0  0
    0.1380   -1.2098   -0.3270 C   0  0  0  0  0  0  0  0  0  0  0  0
   -1.8710    1.3306    0.5159 N   0  0  0  0  0  0  0  0  0  0  0  0
   -2.4952    2.6645   -1.5389 C   0  0  0  0  0  0  0  0  0  0  0  0
   -1.4524    2.3338   -0.4722 C   0  0  0  0  0  0  0  0  0  0  0  0
   -2.4703   -7.7834   -1.2279 H   0  0  0  0  0  0  0  0  0  0  0  0
   -3.4830   -7.1508    0.1188 H   0  0  0  0  0  0  0  0  0  0  0  0
   -1.8102   -7.7793    0.4647 H   0  0  0  0  0  0  0  0  0  0  0  0
    0.2174   -6.5371    3.1312 H   0  0  0  0  0  0  0  0  0  0  0  0
    1.7712   -6.5577    4.0230 H   0  0  0  0  0  0  0  0  0  0  0  0
    1.7595   -6.2208    2.2430 H   0  0  0  0  0  0  0  0  0  0  0  0
   11.1844    1.0290    1.7718 H   0  0  0  0  0  0  0  0  0  0  0  0
    9.9409    2.1760    2.3867 H   0  0  0  0  0  0  0  0  0  0  0  0
   11.0541    2.6856    1.0499 H   0  0  0  0  0  0  0  0  0  0  0  0
    1.1331   -2.0748   -1.5142 H   0  0  0  0  0  0  0  0  0  0  0  0
    1.9286   -1.9391   -0.5092 H   0  0  0  0  0  0  0  0  0  0  0  0
    1.5368   -1.0012   -1.6866 H   0  0  0  0  0  0  0  0  0  0  0  0
   -0.0385   -1.8144    0.2512 H   0  0  0  0  0  0  0  0  0  0  0  0
   -0.3513   -0.7607   -1.0458 H   0  0  0  0  0  0  0  0  0  0  0  0
   -2.2578    3.2209   -2.2725 H   0  0  0  0  0  0  0  0  0  0  0  0
   -3.0664    2.9248   -1.1777 H   0  0  0  0  0  0  0  0  0  0  0  0
   -2.7586    2.2698   -1.9553 H   0  0  0  0  0  0  0  0  0  0  0  0
   -1.2656    2.9206   -0.2252 H   0  0  0  0  0  0  0  0  0  0  0  0
   -1.0478    2.1859   -0.7964 H   0  0  0  0  0  0  0  0  0  0  0  0
   -2.0612    6.5597    4.3840 H   0  0  0  0  0  0  0  0  0  0  0  0
   -3.8474    6.8679    4.5262 H   0  0  0  0  0  0  0  0  0  0  0  0
   -3.0663    6.7544    2.9024 H   0  0  0  0  0  0  0  0  0  0  0  0
   -9.8297   -3.2006   -5.2988 H   0  0  0  0  0  0  0  0  0  0  0  0
  -11.0009   -2.2859   -4.2654 H   0  0  0  0  0  0  0  0  0  0  0  0
   -9.6457   -3.2281   -3.5075 H   0  0  0  0  0  0  0  0  0  0  0  0
   -3.3824    6.6858    0.5264 H   0  0  0  0  0  0  0  0  0  0  0  0
   -2.5221    6.1736   -0.9688 H   0  0  0  0  0  0  0  0  0  0  0  0
   -2.1023    7.7524   -0.1811 H   0  0  0  0  0  0  0  0  0  0  0  0
   -8.6460    1.4161   -1.5329 H   0  0  0  0  0  0  0  0  0  0  0  0
   -6.9412   -2.1488   -3.3731 H   0  0  0  0  0  0  0  0  0  0  0  0
   -6.5286    3.5689    2.1335 H   0  0  0  0  0  0  0  0  0  0  0  0
   -3.3852   -4.2374   -1.3355 H   0  0  0  0  0  0  0  0  0  0  0  0
    4.4244   -2.6577    3.4658 H   0  0  0  0  0  0  0  0  0  0  0  0
    7.5459   -0.0139    1.3623 H   0  0  0  0  0  0  0  0  0  0  0  0
    6.5317    3.6560   -0.7400 H   0  0  0  0  0  0  0  0  0  0  0  0
    2.2800    5.3996   -0.4141 H   0  0  0  0  0  0  0  0  0  0  0  0
  1  2  2  0  0  0  0
  2  3  1  0  0  0  0
  3  4  2  0  0  0  0
  3  7  1  0  0  0  0
  4  5  1  0  0  0  0
  5  6  2  0  0  0  0
  5111  1  0  0  0  0
  6  1  1  0  0  0  0
  6 23  1  0  0  0  0
  7  8  1  0  0  0  0
  7 11  2  0  0  0  0
  8  9  1  0  0  0  0
  9 10  2  0  0  0  0
 10  4  1  0  0  0  0
 11 12  1  0  0  0  0
 11 18  1  0  0  0  0
 12 13  2  0  0  0  0
 13 14  1  0  0  0  0
 14  8  1  0  0  0  0
 14 15  2  0  0  0  0
 15 16  1  0  0  0  0
 15109  1  0  0  0  0
 16 17  2  0  0  0  0
 16 25  1  0  0  0  0
 17  9  1  0  0  0  0
 17110  1  0  0  0  0
 18 70  1  0  0  0  0
 18 19  2  0  0  0  0
 19 20  1  0  0  0  0
 20 21  2  0  0  0  0
 20 24  1  0  0  0  0
 21 12  1  0  0  0  0
 21108  1  0  0  0  0
 22  2  1  0  0  0  0
 23 67  2  6  0  0  0
 23 68  1  0  0  0  0
 24 55  1  0  0  0  0
 24 57  2  6  0  0  0
 25 52  2  1  0  0  0
 25 53  1  0  0  0  0
 26 27  2  0  0  0  0
 27 28  1  0  0  0  0
 27 47  1  0  0  0  0
 28 29  2  0  0  0  0
 28 32  1  0  0  0  0
 29 30  1  0  0  0  0
 30 31  2  0  0  0  0
 30107  1  0  0  0  0
 31 26  1  0  0  0  0
 31 48  1  0  0  0  0
 32 36  2  0  0  0  0
 33 32  1  0  0  0  0
 33 34  1  0  0  0  0
 34 35  2  0  0  0  0
 35 29  1  0  0  0  0
 36 37  1  0  0  0  0
 36 43  1  0  0  0  0
 37 38  2  0  0  0  0
 38 39  1  0  0  0  0
 39 33  1  0  0  0  0
 39 40  2  0  0  0  0
 40 41  1  0  0  0  0
 40104  1  0  0  0  0
 41 42  2  0  0  0  0
 41 50  1  0  0  0  0
 42 34  1  0  0  0  0
 42105  1  0  0  0  0
 43 73  1  0  0  0  0
 43 44  2  0  0  0  0
 44 45  1  0  0  0  0
 45 46  2  0  0  0  0
 45 49  1  0  0  0  0
 46 37  1  0  0  0  0
 46106  1  0  0  0  0
 48 58  2  1  0  0  0
 48 59  1  0  0  0  0
 49 64  2  6  0  0  0
 49 65  1  0  0  0  0
 50 61  2  1  0  0  0
 50 62  1  0  0  0  0
 51 70  1  0  0  0  0
 51 73  1  0  0  0  0
 51 22  1  1  0  0  0
 51 47  1  0  0  0  0
 53 54  1  0  0  0  0
 54 82  1  0  0  0  0
 54 83  1  0  0  0  0
 54 84  1  0  0  0  0
 55 56  1  0  0  0  0
 56 79  1  0  0  0  0
 56 80  1  0  0  0  0
 56 81  1  0  0  0  0
 59 60  1  0  0  0  0
 60 76  1  0  0  0  0
 60 77  1  0  0  0  0
 60 78  1  0  0  0  0
 62 63  1  0  0  0  0
 63 98  1  0  0  0  0
 63 99  1  0  0  0  0
 63100  1  0  0  0  0
 65 66  1  0  0  0  0
 66 95  1  0  0  0  0
 66 96  1  0  0  0  0
 66 97  1  0  0  0  0
 68 69  1  0  0  0  0
 69101  1  0  0  0  0
 69102  1  0  0  0  0
 69103  1  0  0  0  0
 70 72  1  0  0  0  0
 71 72  1  0  0  0  0
 71 85  1  0  0  0  0
 71 86  1  0  0  0  0
 71 87  1  0  0  0  0
 72 88  1  0  0  0  0
 72 89  1  0  0  0  0
 73 75  1  0  0  0  0
 74 75  1  0  0  0  0
 74 90  1  0  0  0  0
 74 91  1  0  0  0  0
 74 92  1  0  0  0  0
 75 93  1  0  0  0  0
 75 94  1  0  0  0  0
M  CHG  7   1  -1   8  -1  19  -1  26  -1  33  -1  44  -1  51  -1
M  END
