 energy: -215.977403723802 gnorm: 0.000616996262 xtb: 6.7.1 (edcfbbe)
          02282515203D

111122  0     0  0            999 V2000
   -0.4109    3.3407    0.8291 C   0  0  0  0  0  0  0  0  0  0  0  0
    0.4197    2.2632    1.1645 C   0  0  0  0  0  0  0  0  0  0  0  0
    1.8036    2.1549    0.9988 C   0  0  0  0  0  0  0  0  0  0  0  0
    2.4818    3.3739    0.7084 C   0  0  0  0  0  0  0  0  0  0  0  0
    1.6702    4.4887    0.3380 C   0  0  0  0  0  0  0  0  0  0  0  0
    0.2940    4.4640    0.3542 C   0  0  0  0  0  0  0  0  0  0  0  0
    2.5167    0.9256    1.2725 C   0  0  0  0  0  0  0  0  0  0  0  0
    3.8701    1.1421    1.5775 C   0  0  0  0  0  0  0  0  0  0  0  0
    4.4644    2.4306    1.3387 C   0  0  0  0  0  0  0  0  0  0  0  0
    3.7999    3.4776    0.8533 N   0  0  0  0  0  0  0  0  0  0  0  0
    2.0658   -0.4590    1.3657 C   0  0  0  0  0  0  0  0  0  0  0  0
    2.8587   -1.3671    2.1496 C   0  0  0  0  0  0  0  0  0  0  0  0
    4.0976   -1.0808    2.5170 N   0  0  0  0  0  0  0  0  0  0  0  0
    4.6397    0.0872    2.1689 C   0  0  0  0  0  0  0  0  0  0  0  0
    5.9876    0.3359    2.5017 C   0  0  0  0  0  0  0  0  0  0  0  0
    6.5662    1.5454    2.1700 C   0  0  0  0  0  0  0  0  0  0  0  0
    5.8511    2.5664    1.5849 C   0  0  0  0  0  0  0  0  0  0  0  0
    1.0120   -1.0757    0.6594 C   0  0  0  0  0  0  0  0  0  0  0  0
    0.4294   -2.3274    1.0112 C   0  0  0  0  0  0  0  0  0  0  0  0
    1.1617   -3.1165    1.9068 C   0  0  0  0  0  0  0  0  0  0  0  0
    2.3515   -2.6779    2.4200 C   0  0  0  0  0  0  0  0  0  0  0  0
   -0.1443    1.1604    1.6030 O   0  0  0  0  0  0  0  0  0  0  0  0
   -0.5622    5.9154   -0.3991 S   0  0  0  0  0  0  0  0  0  0  0  0
    0.4239   -4.7249    2.4205 S   0  0  0  0  0  0  0  0  0  0  0  0
    8.3575    1.8446    2.6207 S   0  0  0  0  0  0  0  0  0  0  0  0
   -0.9793   -2.5826    0.5959 C   0  0  0  0  0  0  0  0  0  0  0  0
   -1.8747   -1.5110    0.7372 C   0  0  0  0  0  0  0  0  0  0  0  0
   -3.1849   -1.4316    0.2626 C   0  0  0  0  0  0  0  0  0  0  0  0
   -3.7669   -2.6646   -0.1543 C   0  0  0  0  0  0  0  0  0  0  0  0
   -2.9009   -3.8021   -0.2470 C   0  0  0  0  0  0  0  0  0  0  0  0
   -1.5711   -3.7536    0.0877 C   0  0  0  0  0  0  0  0  0  0  0  0
   -3.9546   -0.2115    0.4004 C   0  0  0  0  0  0  0  0  0  0  0  0
   -5.3390   -0.4523    0.3817 C   0  0  0  0  0  0  0  0  0  0  0  0
   -5.8465   -1.7364   -0.0229 C   0  0  0  0  0  0  0  0  0  0  0  0
   -5.0763   -2.7767   -0.3454 N   0  0  0  0  0  0  0  0  0  0  0  0
   -3.5514    1.1660    0.6792 C   0  0  0  0  0  0  0  0  0  0  0  0
   -4.5183    1.9933    1.3497 C   0  0  0  0  0  0  0  0  0  0  0  0
   -5.8081    1.7015    1.3747 N   0  0  0  0  0  0  0  0  0  0  0  0
   -6.2431    0.5689    0.8223 C   0  0  0  0  0  0  0  0  0  0  0  0
   -7.6297    0.3138    0.7944 C   0  0  0  0  0  0  0  0  0  0  0  0
   -8.0989   -0.8857    0.2959 C   0  0  0  0  0  0  0  0  0  0  0  0
   -7.2486   -1.8904   -0.1121 C   0  0  0  0  0  0  0  0  0  0  0  0
   -2.3703    1.8536    0.3045 C   0  0  0  0  0  0  0  0  0  0  0  0
   -1.8859    3.0426    0.9265 C   0  0  0  0  0  0  0  0  0  0  0  0
   -2.7846    3.6621    1.8080 C   0  0  0  0  0  0  0  0  0  0  0  0
   -4.0713    3.2104    1.9428 C   0  0  0  0  0  0  0  0  0  0  0  0
   -1.4783   -0.4271    1.3536 O   0  0  0  0  0  0  0  0  0  0  0  0
   -0.3550   -5.1132   -0.2034 S   0  0  0  0  0  0  0  0  0  0  0  0
   -2.2304    4.9684    2.9840 S   0  0  0  0  0  0  0  0  0  0  0  0
   -9.9450   -1.1542    0.1570 S   0  0  0  0  0  0  0  0  0  0  0  0
   -0.6722    0.3976    0.5066 B   0  0  0  0  0  0  0  0  0  0  0  0
    8.6453    3.1030    1.9791 O   0  0  0  0  0  0  0  0  0  0  0  0
    8.0391    2.1336    4.2224 O   0  0  0  0  0  0  0  0  0  0  0  0
    7.6512    3.4345    4.5921 C   0  0  0  0  0  0  0  0  0  0  0  0
    1.6182   -5.5459    1.6223 O   0  0  0  0  0  0  0  0  0  0  0  0
    1.6978   -6.9218    1.9599 C   0  0  0  0  0  0  0  0  0  0  0  0
    0.6940   -4.8139    3.8352 O   0  0  0  0  0  0  0  0  0  0  0  0
   -1.0136   -6.3039    0.2793 O   0  0  0  0  0  0  0  0  0  0  0  0
   -0.4826   -5.0965   -1.8509 O   0  0  0  0  0  0  0  0  0  0  0  0
   -1.4189   -5.9454   -2.4787 C   0  0  0  0  0  0  0  0  0  0  0  0
  -10.0304   -2.4790   -0.4061 O   0  0  0  0  0  0  0  0  0  0  0  0
  -10.1616   -0.0545   -1.0673 O   0  0  0  0  0  0  0  0  0  0  0  0
   -9.9614   -0.4919   -2.3896 C   0  0  0  0  0  0  0  0  0  0  0  0
   -3.4469    5.4669    3.5738 O   0  0  0  0  0  0  0  0  0  0  0  0
   -1.7636    6.0518    1.7699 O   0  0  0  0  0  0  0  0  0  0  0  0
   -1.7365    7.4066    2.1711 C   0  0  0  0  0  0  0  0  0  0  0  0
    0.2033    6.1319   -1.6058 O   0  0  0  0  0  0  0  0  0  0  0  0
   -1.8836    4.9581   -0.7915 O   0  0  0  0  0  0  0  0  0  0  0  0
   -3.0244    5.6632   -1.2234 C   0  0  0  0  0  0  0  0  0  0  0  0
    0.3880   -0.3350   -0.3147 N   0  0  0  0  0  0  0  0  0  0  0  0
    1.4227   -0.7468   -2.4824 C   0  0  0  0  0  0  0  0  0  0  0  0
    0.2037   -0.9978   -1.5921 C   0  0  0  0  0  0  0  0  0  0  0  0
   -1.5030    1.1819   -0.5220 N   0  0  0  0  0  0  0  0  0  0  0  0
   -1.9681    1.6964   -2.8594 C   0  0  0  0  0  0  0  0  0  0  0  0
   -1.0207    1.9123   -1.6757 C   0  0  0  0  0  0  0  0  0  0  0  0
   -0.9240   -6.4275   -3.3213 H   0  0  0  0  0  0  0  0  0  0  0  0
   -2.2703   -5.3604   -2.8335 H   0  0  0  0  0  0  0  0  0  0  0  0
   -1.7574   -6.7058   -1.7695 H   0  0  0  0  0  0  0  0  0  0  0  0
    0.8567   -7.4680    1.5291 H   0  0  0  0  0  0  0  0  0  0  0  0
    1.7000   -7.0392    3.0457 H   0  0  0  0  0  0  0  0  0  0  0  0
    2.6350   -7.2899    1.5465 H   0  0  0  0  0  0  0  0  0  0  0  0
    8.0501    3.6283    5.5862 H   0  0  0  0  0  0  0  0  0  0  0  0
    6.5600    3.5154    4.6066 H   0  0  0  0  0  0  0  0  0  0  0  0
    8.0613    4.1625    3.8851 H   0  0  0  0  0  0  0  0  0  0  0  0
    1.2753   -1.2325   -3.4427 H   0  0  0  0  0  0  0  0  0  0  0  0
    2.3158   -1.1573   -2.0171 H   0  0  0  0  0  0  0  0  0  0  0  0
    1.5799    0.3158   -2.6478 H   0  0  0  0  0  0  0  0  0  0  0  0
    0.1015   -2.0824   -1.4693 H   0  0  0  0  0  0  0  0  0  0  0  0
   -0.7024   -0.6201   -2.0609 H   0  0  0  0  0  0  0  0  0  0  0  0
   -1.5990    2.2495   -3.7182 H   0  0  0  0  0  0  0  0  0  0  0  0
   -2.9623    2.0605   -2.6107 H   0  0  0  0  0  0  0  0  0  0  0  0
   -2.0438    0.6449   -3.1251 H   0  0  0  0  0  0  0  0  0  0  0  0
   -0.9979    2.9863   -1.4753 H   0  0  0  0  0  0  0  0  0  0  0  0
   -0.0139    1.5780   -1.9171 H   0  0  0  0  0  0  0  0  0  0  0  0
   -0.8223    7.6306    2.7253 H   0  0  0  0  0  0  0  0  0  0  0  0
   -2.6056    7.6308    2.7948 H   0  0  0  0  0  0  0  0  0  0  0  0
   -1.7720    8.0136    1.2677 H   0  0  0  0  0  0  0  0  0  0  0  0
  -10.7104   -0.0114   -3.0170 H   0  0  0  0  0  0  0  0  0  0  0  0
  -10.0826   -1.5782   -2.4456 H   0  0  0  0  0  0  0  0  0  0  0  0
   -8.9588   -0.2182   -2.7307 H   0  0  0  0  0  0  0  0  0  0  0  0
   -3.4555    6.2427   -0.4035 H   0  0  0  0  0  0  0  0  0  0  0  0
   -3.7486    4.9218   -1.5604 H   0  0  0  0  0  0  0  0  0  0  0  0
   -2.7770    6.3289   -2.0538 H   0  0  0  0  0  0  0  0  0  0  0  0
   -8.3017    1.0641    1.1801 H   0  0  0  0  0  0  0  0  0  0  0  0
   -7.6531   -2.8170   -0.4935 H   0  0  0  0  0  0  0  0  0  0  0  0
   -4.7722    3.7709    2.5452 H   0  0  0  0  0  0  0  0  0  0  0  0
   -3.3429   -4.7357   -0.5576 H   0  0  0  0  0  0  0  0  0  0  0  0
    2.9376   -3.3241    3.0544 H   0  0  0  0  0  0  0  0  0  0  0  0
    6.5375   -0.4238    3.0342 H   0  0  0  0  0  0  0  0  0  0  0  0
    6.3471    3.4854    1.3073 H   0  0  0  0  0  0  0  0  0  0  0  0
    2.1748    5.3831    0.0061 H   0  0  0  0  0  0  0  0  0  0  0  0
  1  2  2  0  0  0  0
  2  3  1  0  0  0  0
  3  4  2  0  0  0  0
  3  7  1  0  0  0  0
  4  5  1  0  0  0  0
  5  6  2  0  0  0  0
  5111  1  0  0  0  0
  6  1  1  0  0  0  0
  6 23  1  0  0  0  0
  7  8  1  0  0  0  0
  7 11  2  0  0  0  0
  8  9  1  0  0  0  0
  9 10  2  0  0  0  0
 10  4  1  0  0  0  0
 11 12  1  0  0  0  0
 11 18  1  0  0  0  0
 12 13  2  0  0  0  0
 13 14  1  0  0  0  0
 14  8  1  0  0  0  0
 14 15  2  0  0  0  0
 15 16  1  0  0  0  0
 15109  1  0  0  0  0
 16 17  2  0  0  0  0
 16 25  1  0  0  0  0
 17  9  1  0  0  0  0
 17110  1  0  0  0  0
 18 70  1  0  0  0  0
 18 19  2  0  0  0  0
 19 20  1  0  0  0  0
 20 21  2  0  0  0  0
 20 24  1  0  0  0  0
 21 12  1  0  0  0  0
 21108  1  0  0  0  0
 22  2  1  0  0  0  0
 23 67  2  0  0  0  0
 23 68  1  0  0  0  0
 24 55  1  0  0  0  0
 24 57  2  0  0  0  0
 25 52  2  0  0  0  0
 25 53  1  0  0  0  0
 26 27  2  0  0  0  0
 27 28  1  0  0  0  0
 27 47  1  0  0  0  0
 28 29  2  0  0  0  0
 28 32  1  0  0  0  0
 29 30  1  0  0  0  0
 30 31  2  0  0  0  0
 30107  1  0  0  0  0
 31 26  1  0  0  0  0
 31 48  1  0  0  0  0
 32 36  2  0  0  0  0
 33 32  1  0  0  0  0
 33 34  1  0  0  0  0
 34 35  2  0  0  0  0
 35 29  1  0  0  0  0
 36 37  1  0  0  0  0
 36 43  1  0  0  0  0
 37 38  2  0  0  0  0
 38 39  1  0  0  0  0
 39 33  1  0  0  0  0
 39 40  2  0  0  0  0
 40 41  1  0  0  0  0
 40104  1  0  0  0  0
 41 42  2  0  0  0  0
 41 50  1  0  0  0  0
 42 34  1  0  0  0  0
 42105  1  0  0  0  0
 43 73  1  0  0  0  0
 43 44  2  0  0  0  0
 44 45  1  0  0  0  0
 45 46  2  0  0  0  0
 45 49  1  0  0  0  0
 46 37  1  0  0  0  0
 46106  1  0  0  0  0
 48 58  2  0  0  0  0
 48 59  1  0  0  0  0
 49 64  2  0  0  0  0
 49 65  1  0  0  0  0
 50 61  2  0  0  0  0
 50 62  1  0  0  0  0
 51 70  1  0  0  0  0
 51 73  1  0  0  0  0
 51 22  1  0  0  0  0
 51 47  1  0  0  0  0
 53 54  1  0  0  0  0
 54 82  1  0  0  0  0
 54 83  1  0  0  0  0
 54 84  1  0  0  0  0
 55 56  1  0  0  0  0
 56 79  1  0  0  0  0
 56 80  1  0  0  0  0
 56 81  1  0  0  0  0
 59 60  1  0  0  0  0
 60 76  1  0  0  0  0
 60 77  1  0  0  0  0
 60 78  1  0  0  0  0
 62 63  1  0  0  0  0
 63 98  1  0  0  0  0
 63 99  1  0  0  0  0
 63100  1  0  0  0  0
 65 66  1  0  0  0  0
 66 95  1  0  0  0  0
 66 96  1  0  0  0  0
 66 97  1  0  0  0  0
 68 69  1  0  0  0  0
 69101  1  0  0  0  0
 69102  1  0  0  0  0
 69103  1  0  0  0  0
 70 72  1  0  0  0  0
 71 72  1  0  0  0  0
 71 85  1  0  0  0  0
 71 86  1  0  0  0  0
 71 87  1  0  0  0  0
 72 88  1  0  0  0  0
 72 89  1  0  0  0  0
 73 75  1  0  0  0  0
 74 75  1  0  0  0  0
 74 90  1  0  0  0  0
 74 91  1  0  0  0  0
 74 92  1  0  0  0  0
 75 93  1  0  0  0  0
 75 94  1  0  0  0  0
M  CHG  1   1   1
M  END
