 energy: -216.401905838099 gnorm: 0.000439875782 xtb: 6.6.1 (8d0f1dd)
          11012412223D

111122  0     0  0            999 V2000
   -0.3719    3.2762    0.8727 C   0  0  0  0  0  0  0  0  0  0  0  0
    0.4588    2.1680    1.1442 C   0  0  0  0  0  0  0  0  0  0  0  0
    1.8381    2.0491    0.9994 C   0  0  0  0  0  0  0  0  0  0  0  0
    2.5372    3.2708    0.7642 C   0  0  0  0  0  0  0  0  0  0  0  0
    1.7375    4.4313    0.5100 C   0  0  0  0  0  0  0  0  0  0  0  0
    0.3683    4.4391    0.5602 C   0  0  0  0  0  0  0  0  0  0  0  0
    2.5356    0.8002    1.2600 C   0  0  0  0  0  0  0  0  0  0  0  0
    3.9043    0.9906    1.5257 C   0  0  0  0  0  0  0  0  0  0  0  0
    4.5232    2.2653    1.2739 C   0  0  0  0  0  0  0  0  0  0  0  0
    3.8565    3.3468    0.8498 N   0  0  0  0  0  0  0  0  0  0  0  0
    2.0555   -0.5727    1.3585 C   0  0  0  0  0  0  0  0  0  0  0  0
    2.8814   -1.5189    2.0614 C   0  0  0  0  0  0  0  0  0  0  0  0
    4.1291   -1.2556    2.4086 N   0  0  0  0  0  0  0  0  0  0  0  0
    4.6773   -0.0809    2.0802 C   0  0  0  0  0  0  0  0  0  0  0  0
    6.0460    0.1232    2.3310 C   0  0  0  0  0  0  0  0  0  0  0  0
    6.6302    1.3334    2.0154 C   0  0  0  0  0  0  0  0  0  0  0  0
    5.9085    2.3851    1.4929 C   0  0  0  0  0  0  0  0  0  0  0  0
    0.9438   -1.1734    0.7199 C   0  0  0  0  0  0  0  0  0  0  0  0
    0.3616   -2.4308    1.0723 C   0  0  0  0  0  0  0  0  0  0  0  0
    1.1513   -3.2623    1.8813 C   0  0  0  0  0  0  0  0  0  0  0  0
    2.3665   -2.8277    2.3332 C   0  0  0  0  0  0  0  0  0  0  0  0
   -0.1060    1.0904    1.6401 O   0  0  0  0  0  0  0  0  0  0  0  0
   -0.5125    5.9709    0.0945 S   0  0  0  0  0  0  0  0  0  0  0  0
    0.4634   -4.8929    2.3785 S   0  0  0  0  0  0  0  0  0  0  0  0
    8.4279    1.5537    2.3730 S   0  0  0  0  0  0  0  0  0  0  0  0
   -1.0548   -2.6546    0.7273 C   0  0  0  0  0  0  0  0  0  0  0  0
   -1.9279   -1.5575    0.8719 C   0  0  0  0  0  0  0  0  0  0  0  0
   -3.2564   -1.4543    0.4765 C   0  0  0  0  0  0  0  0  0  0  0  0
   -3.8861   -2.6856    0.1202 C   0  0  0  0  0  0  0  0  0  0  0  0
   -3.0459   -3.8438    0.0157 C   0  0  0  0  0  0  0  0  0  0  0  0
   -1.7045   -3.8283    0.2956 C   0  0  0  0  0  0  0  0  0  0  0  0
   -3.9974   -0.2100    0.6104 C   0  0  0  0  0  0  0  0  0  0  0  0
   -5.3901   -0.4168    0.6136 C   0  0  0  0  0  0  0  0  0  0  0  0
   -5.9394   -1.6976    0.2531 C   0  0  0  0  0  0  0  0  0  0  0  0
   -5.1967   -2.7721   -0.0474 N   0  0  0  0  0  0  0  0  0  0  0  0
   -3.5503    1.1636    0.8208 C   0  0  0  0  0  0  0  0  0  0  0  0
   -4.5103    2.0892    1.3636 C   0  0  0  0  0  0  0  0  0  0  0  0
   -5.8000    1.8156    1.4539 N   0  0  0  0  0  0  0  0  0  0  0  0
   -6.2659    0.6420    1.0186 C   0  0  0  0  0  0  0  0  0  0  0  0
   -7.6559    0.4249    1.0085 C   0  0  0  0  0  0  0  0  0  0  0  0
   -8.1583   -0.7934    0.5995 C   0  0  0  0  0  0  0  0  0  0  0  0
   -7.3391   -1.8388    0.2293 C   0  0  0  0  0  0  0  0  0  0  0  0
   -2.3334    1.7860    0.4360 C   0  0  0  0  0  0  0  0  0  0  0  0
   -1.8319    3.0304    0.9396 C   0  0  0  0  0  0  0  0  0  0  0  0
   -2.7819    3.8218    1.6023 C   0  0  0  0  0  0  0  0  0  0  0  0
   -4.0661    3.3845    1.7722 C   0  0  0  0  0  0  0  0  0  0  0  0
   -1.4787   -0.4887    1.4863 O   0  0  0  0  0  0  0  0  0  0  0  0
   -0.5708   -5.2033   -0.1320 S   0  0  0  0  0  0  0  0  0  0  0  0
   -2.2759    5.4017    2.3523 S   0  0  0  0  0  0  0  0  0  0  0  0
   -9.9902   -1.0059    0.5319 S   0  0  0  0  0  0  0  0  0  0  0  0
   -0.6958    0.3088    0.6142 B   0  0  0  0  0  0  0  0  0  0  0  0
    8.7215    2.8748    1.8608 O   0  0  0  0  0  0  0  0  0  0  0  0
    8.2479    1.6668    4.0286 O   0  0  0  0  0  0  0  0  0  0  0  0
    7.7332    2.8751    4.5273 C   0  0  0  0  0  0  0  0  0  0  0  0
    1.4942   -5.8138    1.4428 O   0  0  0  0  0  0  0  0  0  0  0  0
    2.6290   -6.3696    2.0653 C   0  0  0  0  0  0  0  0  0  0  0  0
    0.9098   -5.0433    3.7488 O   0  0  0  0  0  0  0  0  0  0  0  0
   -1.3735   -6.3967   -0.0091 O   0  0  0  0  0  0  0  0  0  0  0  0
   -0.5288   -4.7942   -1.7577 O   0  0  0  0  0  0  0  0  0  0  0  0
   -1.5821   -5.2391   -2.5757 C   0  0  0  0  0  0  0  0  0  0  0  0
  -10.1645   -2.4025    0.1964 O   0  0  0  0  0  0  0  0  0  0  0  0
  -10.1981   -0.1121   -0.8666 O   0  0  0  0  0  0  0  0  0  0  0  0
   -9.8469   -0.7400   -2.0726 C   0  0  0  0  0  0  0  0  0  0  0  0
   -3.0691    5.5239    3.5568 O   0  0  0  0  0  0  0  0  0  0  0  0
   -3.0722    6.2678    1.1463 O   0  0  0  0  0  0  0  0  0  0  0  0
   -3.1955    7.6442    1.4260 C   0  0  0  0  0  0  0  0  0  0  0  0
    0.4850    6.7897   -0.5652 O   0  0  0  0  0  0  0  0  0  0  0  0
   -1.3416    5.1049   -1.0718 O   0  0  0  0  0  0  0  0  0  0  0  0
   -2.1609    5.8862   -1.9094 C   0  0  0  0  0  0  0  0  0  0  0  0
    0.3440   -0.4352   -0.2702 N   0  0  0  0  0  0  0  0  0  0  0  0
    1.1972   -0.9355   -2.4913 C   0  0  0  0  0  0  0  0  0  0  0  0
    0.0423   -1.1392   -1.5081 C   0  0  0  0  0  0  0  0  0  0  0  0
   -1.5515    1.0716   -0.4383 N   0  0  0  0  0  0  0  0  0  0  0  0
   -1.9491    1.6241   -2.7728 C   0  0  0  0  0  0  0  0  0  0  0  0
   -1.0146    1.8077   -1.5742 C   0  0  0  0  0  0  0  0  0  0  0  0
   -1.1683   -5.4561   -3.5603 H   0  0  0  0  0  0  0  0  0  0  0  0
   -2.3548   -4.4687   -2.6570 H   0  0  0  0  0  0  0  0  0  0  0  0
   -2.0147   -6.1495   -2.1501 H   0  0  0  0  0  0  0  0  0  0  0  0
    2.6726   -7.4291    1.8128 H   0  0  0  0  0  0  0  0  0  0  0  0
    2.5459   -6.2559    3.1512 H   0  0  0  0  0  0  0  0  0  0  0  0
    3.5297   -5.8638    1.7090 H   0  0  0  0  0  0  0  0  0  0  0  0
    8.1347    3.0146    5.5298 H   0  0  0  0  0  0  0  0  0  0  0  0
    6.6399    2.8424    4.5663 H   0  0  0  0  0  0  0  0  0  0  0  0
    8.0494    3.7068    3.8890 H   0  0  0  0  0  0  0  0  0  0  0  0
    0.9771   -1.4573   -3.4187 H   0  0  0  0  0  0  0  0  0  0  0  0
    2.1148   -1.3419   -2.0717 H   0  0  0  0  0  0  0  0  0  0  0  0
    1.3583    0.1169   -2.7089 H   0  0  0  0  0  0  0  0  0  0  0  0
   -0.0747   -2.2173   -1.3609 H   0  0  0  0  0  0  0  0  0  0  0  0
   -0.8877   -0.7501   -1.9172 H   0  0  0  0  0  0  0  0  0  0  0  0
   -1.5480    2.1625   -3.6275 H   0  0  0  0  0  0  0  0  0  0  0  0
   -2.9330    2.0237   -2.5363 H   0  0  0  0  0  0  0  0  0  0  0  0
   -2.0616    0.5768   -3.0405 H   0  0  0  0  0  0  0  0  0  0  0  0
   -0.9435    2.8796   -1.3775 H   0  0  0  0  0  0  0  0  0  0  0  0
   -0.0179    1.4340   -1.7997 H   0  0  0  0  0  0  0  0  0  0  0  0
   -2.2531    8.1659    1.2325 H   0  0  0  0  0  0  0  0  0  0  0  0
   -3.4914    7.7909    2.4681 H   0  0  0  0  0  0  0  0  0  0  0  0
   -3.9735    8.0368    0.7721 H   0  0  0  0  0  0  0  0  0  0  0  0
  -10.4834   -0.3307   -2.8558 H   0  0  0  0  0  0  0  0  0  0  0  0
  -10.0153   -1.8193   -1.9934 H   0  0  0  0  0  0  0  0  0  0  0  0
   -8.7952   -0.5534   -2.3131 H   0  0  0  0  0  0  0  0  0  0  0  0
   -3.0535    6.2159   -1.3724 H   0  0  0  0  0  0  0  0  0  0  0  0
   -2.4485    5.2542   -2.7493 H   0  0  0  0  0  0  0  0  0  0  0  0
   -1.6080    6.7540   -2.2786 H   0  0  0  0  0  0  0  0  0  0  0  0
   -8.3096    1.2254    1.3153 H   0  0  0  0  0  0  0  0  0  0  0  0
   -7.7694   -2.7873   -0.0543 H   0  0  0  0  0  0  0  0  0  0  0  0
   -4.7801    4.0184    2.2752 H   0  0  0  0  0  0  0  0  0  0  0  0
   -3.5113   -4.7731   -0.2757 H   0  0  0  0  0  0  0  0  0  0  0  0
    2.9703   -3.4691    2.9562 H   0  0  0  0  0  0  0  0  0  0  0  0
    6.6193   -0.6751    2.7742 H   0  0  0  0  0  0  0  0  0  0  0  0
    6.4011    3.3180    1.2648 H   0  0  0  0  0  0  0  0  0  0  0  0
    2.2465    5.3495    0.2560 H   0  0  0  0  0  0  0  0  0  0  0  0
  1  2  2  0  0  0  0
  2  3  1  0  0  0  0
  3  4  2  0  0  0  0
  3  7  1  0  0  0  0
  4  5  1  0  0  0  0
  5  6  2  0  0  0  0
  5111  1  0  0  0  0
  6  1  1  0  0  0  0
  6 23  1  0  0  0  0
  7  8  1  0  0  0  0
  7 11  2  0  0  0  0
  8  9  1  0  0  0  0
  9 10  2  0  0  0  0
 10  4  1  0  0  0  0
 11 12  1  0  0  0  0
 11 18  1  0  0  0  0
 12 13  2  0  0  0  0
 13 14  1  0  0  0  0
 14  8  1  0  0  0  0
 14 15  2  0  0  0  0
 15 16  1  0  0  0  0
 15109  1  0  0  0  0
 16 17  2  0  0  0  0
 16 25  1  0  0  0  0
 17  9  1  0  0  0  0
 17110  1  0  0  0  0
 18 70  1  0  0  0  0
 18 19  2  0  0  0  0
 19 20  1  0  0  0  0
 20 21  2  0  0  0  0
 20 24  1  0  0  0  0
 21 12  1  0  0  0  0
 21108  1  0  0  0  0
 22  2  1  0  0  0  0
 23 67  2  0  0  0  0
 23 68  1  0  0  0  0
 24 55  1  0  0  0  0
 24 57  2  0  0  0  0
 25 52  2  0  0  0  0
 25 53  1  0  0  0  0
 26 27  2  0  0  0  0
 27 28  1  0  0  0  0
 27 47  1  0  0  0  0
 28 29  2  0  0  0  0
 28 32  1  0  0  0  0
 29 30  1  0  0  0  0
 30 31  2  0  0  0  0
 30107  1  0  0  0  0
 31 26  1  0  0  0  0
 31 48  1  0  0  0  0
 32 36  2  0  0  0  0
 33 32  1  0  0  0  0
 33 34  1  0  0  0  0
 34 35  2  0  0  0  0
 35 29  1  0  0  0  0
 36 37  1  0  0  0  0
 36 43  1  0  0  0  0
 37 38  2  0  0  0  0
 38 39  1  0  0  0  0
 39 33  1  0  0  0  0
 39 40  2  0  0  0  0
 40 41  1  0  0  0  0
 40104  1  0  0  0  0
 41 42  2  0  0  0  0
 41 50  1  0  0  0  0
 42 34  1  0  0  0  0
 42105  1  0  0  0  0
 43 73  1  0  0  0  0
 43 44  2  0  0  0  0
 44 45  1  0  0  0  0
 45 46  2  0  0  0  0
 45 49  1  0  0  0  0
 46 37  1  0  0  0  0
 46106  1  0  0  0  0
 48 58  2  0  0  0  0
 48 59  1  0  0  0  0
 49 64  2  0  0  0  0
 49 65  1  0  0  0  0
 50 61  2  0  0  0  0
 50 62  1  0  0  0  0
 51 70  1  0  0  0  0
 51 73  1  0  0  0  0
 51 22  1  0  0  0  0
 51 47  1  0  0  0  0
 53 54  1  0  0  0  0
 54 82  1  0  0  0  0
 54 83  1  0  0  0  0
 54 84  1  0  0  0  0
 55 56  1  0  0  0  0
 56 79  1  0  0  0  0
 56 80  1  0  0  0  0
 56 81  1  0  0  0  0
 59 60  1  0  0  0  0
 60 76  1  0  0  0  0
 60 77  1  0  0  0  0
 60 78  1  0  0  0  0
 62 63  1  0  0  0  0
 63 98  1  0  0  0  0
 63 99  1  0  0  0  0
 63100  1  0  0  0  0
 65 66  1  0  0  0  0
 66 95  1  0  0  0  0
 66 96  1  0  0  0  0
 66 97  1  0  0  0  0
 68 69  1  0  0  0  0
 69101  1  0  0  0  0
 69102  1  0  0  0  0
 69103  1  0  0  0  0
 70 72  1  0  0  0  0
 71 72  1  0  0  0  0
 71 85  1  0  0  0  0
 71 86  1  0  0  0  0
 71 87  1  0  0  0  0
 72 88  1  0  0  0  0
 72 89  1  0  0  0  0
 73 75  1  0  0  0  0
 74 75  1  0  0  0  0
 74 90  1  0  0  0  0
 74 91  1  0  0  0  0
 74 92  1  0  0  0  0
 75 93  1  0  0  0  0
 75 94  1  0  0  0  0
M  CHG  1   1   0
M  END
