 energy: -432.446282260551 gnorm: 0.000205800544 xtb: 6.6.1 (8d0f1dd)
          11012413133D

222244  0     0  0            999 V2000
    0.1044    3.2621    0.7915 C   0  0  0  0  0  0  0  0  0  0  0  0
    0.8927    2.1891    1.2342 C   0  0  0  0  0  0  0  0  0  0  0  0
    2.2789    2.0513    1.2239 C   0  0  0  0  0  0  0  0  0  0  0  0
    3.0035    3.2458    0.9385 C   0  0  0  0  0  0  0  0  0  0  0  0
    2.2436    4.3716    0.4832 C   0  0  0  0  0  0  0  0  0  0  0  0
    0.8718    4.3839    0.4149 C   0  0  0  0  0  0  0  0  0  0  0  0
    2.9125    0.8492    1.7368 C   0  0  0  0  0  0  0  0  0  0  0  0
    4.2152    1.1016    2.2024 C   0  0  0  0  0  0  0  0  0  0  0  0
    4.8733    2.3442    1.8866 C   0  0  0  0  0  0  0  0  0  0  0  0
    4.2980    3.3452    1.2143 N   0  0  0  0  0  0  0  0  0  0  0  0
    2.3936   -0.4999    1.9740 C   0  0  0  0  0  0  0  0  0  0  0  0
    3.0569   -1.2700    2.9938 C   0  0  0  0  0  0  0  0  0  0  0  0
    4.2333   -0.9378    3.5053 N   0  0  0  0  0  0  0  0  0  0  0  0
    4.8578    0.1563    3.0657 C   0  0  0  0  0  0  0  0  0  0  0  0
    6.1396    0.4470    3.5692 C   0  0  0  0  0  0  0  0  0  0  0  0
    6.7852    1.6034    3.1815 C   0  0  0  0  0  0  0  0  0  0  0  0
    6.1958    2.5268    2.3437 C   0  0  0  0  0  0  0  0  0  0  0  0
    1.3439   -1.1967    1.3223 C   0  0  0  0  0  0  0  0  0  0  0  0
    0.6638   -2.3199    1.8796 C   0  0  0  0  0  0  0  0  0  0  0  0
    1.2544   -2.9294    2.9947 C   0  0  0  0  0  0  0  0  0  0  0  0
    2.4399   -2.4580    3.4913 C   0  0  0  0  0  0  0  0  0  0  0  0
    0.2819    1.1735    1.7899 O   0  0  0  0  0  0  0  0  0  0  0  0
    0.0077    5.8866   -0.1733 S   0  0  0  0  0  0  0  0  0  0  0  0
    0.1228   -4.0669    3.9058 S   0  0  0  0  0  0  0  0  0  0  0  0
    8.4226    1.9761    3.9529 S   0  0  0  0  0  0  0  0  0  0  0  0
   -0.7413   -2.6031    1.4594 C   0  0  0  0  0  0  0  0  0  0  0  0
   -1.5875   -1.4924    1.3476 C   0  0  0  0  0  0  0  0  0  0  0  0
   -2.8907   -1.4380    0.8594 C   0  0  0  0  0  0  0  0  0  0  0  0
   -3.5328   -2.7009    0.6978 C   0  0  0  0  0  0  0  0  0  0  0  0
   -2.7265   -3.8717    0.8772 C   0  0  0  0  0  0  0  0  0  0  0  0
   -1.4006   -3.8236    1.2295 C   0  0  0  0  0  0  0  0  0  0  0  0
   -3.5975   -0.1737    0.7669 C   0  0  0  0  0  0  0  0  0  0  0  0
   -4.9923   -0.3510    0.7698 C   0  0  0  0  0  0  0  0  0  0  0  0
   -5.5617   -1.6634    0.6020 C   0  0  0  0  0  0  0  0  0  0  0  0
   -4.8438   -2.7860    0.5029 N   0  0  0  0  0  0  0  0  0  0  0  0
   -3.1194    1.2113    0.8113 C   0  0  0  0  0  0  0  0  0  0  0  0
   -4.0636    2.1959    1.2747 C   0  0  0  0  0  0  0  0  0  0  0  0
   -5.3655    1.9673    1.3452 N   0  0  0  0  0  0  0  0  0  0  0  0
   -5.8510    0.7708    1.0089 C   0  0  0  0  0  0  0  0  0  0  0  0
   -7.2468    0.5835    0.9959 C   0  0  0  0  0  0  0  0  0  0  0  0
   -7.7720   -0.6703    0.7512 C   0  0  0  0  0  0  0  0  0  0  0  0
   -6.9680   -1.7733    0.5583 C   0  0  0  0  0  0  0  0  0  0  0  0
   -1.8817    1.7632    0.3903 C   0  0  0  0  0  0  0  0  0  0  0  0
   -1.3700    3.0271    0.8156 C   0  0  0  0  0  0  0  0  0  0  0  0
   -2.2898    3.8715    1.4497 C   0  0  0  0  0  0  0  0  0  0  0  0
   -3.5945    3.4987    1.6190 C   0  0  0  0  0  0  0  0  0  0  0  0
   -1.1469   -0.3347    1.7717 O   0  0  0  0  0  0  0  0  0  0  0  0
   -0.3317   -5.3055    1.3712 S   0  0  0  0  0  0  0  0  0  0  0  0
   -1.6694    5.4093    2.2017 S   0  0  0  0  0  0  0  0  0  0  0  0
   -9.6189   -0.8703    0.6937 S   0  0  0  0  0  0  0  0  0  0  0  0
   -0.2661    0.2798    0.8133 B   0  0  0  0  0  0  0  0  0  0  0  0
    8.9599    3.0378    3.1422 O   0  0  0  0  0  0  0  0  0  0  0  0
    7.7119    2.6812    5.3242 O   0  0  0  0  0  0  0  0  0  0  0  0
    7.4756    4.0721    5.2630 C   0  0  0  0  0  0  0  0  0  0  0  0
    0.9270   -5.4734    3.7393 O   0  0  0  0  0  0  0  0  0  0  0  0
    2.0819   -5.7482    4.5145 C   0  0  0  0  0  0  0  0  0  0  0  0
    0.3540   -3.5818    5.2688 O   0  0  0  0  0  0  0  0  0  0  0  0
   -1.2510   -6.3720    1.6976 O   0  0  0  0  0  0  0  0  0  0  0  0
   -0.0217   -5.3955   -0.2651 O   0  0  0  0  0  0  0  0  0  0  0  0
   -0.9991   -5.9870   -1.0899 C   0  0  0  0  0  0  0  0  0  0  0  0
   -9.7941   -2.3029    0.6389 O   0  0  0  0  0  0  0  0  0  0  0  0
   -9.7944   -0.2648   -0.8452 O   0  0  0  0  0  0  0  0  0  0  0  0
   -9.5547   -1.1425   -1.9177 C   0  0  0  0  0  0  0  0  0  0  0  0
   -2.3558    5.4735    3.4818 O   0  0  0  0  0  0  0  0  0  0  0  0
   -2.5172    6.3413    1.1116 O   0  0  0  0  0  0  0  0  0  0  0  0
   -2.4847    7.7302    1.3735 C   0  0  0  0  0  0  0  0  0  0  0  0
    0.9919    6.6103   -0.9457 O   0  0  0  0  0  0  0  0  0  0  0  0
   -0.9069    4.9382   -1.2028 O   0  0  0  0  0  0  0  0  0  0  0  0
   -1.7791    5.6644   -2.0409 C   0  0  0  0  0  0  0  0  0  0  0  0
    0.7887   -0.6292    0.1952 N   0  0  0  0  0  0  0  0  0  0  0  0
    1.8259   -1.4771   -1.8400 C   0  0  0  0  0  0  0  0  0  0  0  0
    0.5863   -1.5028   -0.9441 C   0  0  0  0  0  0  0  0  0  0  0  0
   -1.0342    0.9430   -0.3243 N   0  0  0  0  0  0  0  0  0  0  0  0
   -1.3476    1.1649   -2.7288 C   0  0  0  0  0  0  0  0  0  0  0  0
   -0.4554    1.5025   -1.5320 C   0  0  0  0  0  0  0  0  0  0  0  0
   -0.4814   -6.4770   -1.9131 H   0  0  0  0  0  0  0  0  0  0  0  0
   -1.6826   -5.2263   -1.4779 H   0  0  0  0  0  0  0  0  0  0  0  0
   -1.5620   -6.7287   -0.5164 H   0  0  0  0  0  0  0  0  0  0  0  0
    2.1048   -6.8253    4.6735 H   0  0  0  0  0  0  0  0  0  0  0  0
    2.0189   -5.2351    5.4773 H   0  0  0  0  0  0  0  0  0  0  0  0
    2.9758   -5.4349    3.9700 H   0  0  0  0  0  0  0  0  0  0  0  0
    7.7938    4.4982    6.2133 H   0  0  0  0  0  0  0  0  0  0  0  0
    6.4139    4.2621    5.0873 H   0  0  0  0  0  0  0  0  0  0  0  0
    8.0671    4.5143    4.4557 H   0  0  0  0  0  0  0  0  0  0  0  0
    1.6686   -2.1258   -2.6970 H   0  0  0  0  0  0  0  0  0  0  0  0
    2.6927   -1.8316   -1.2874 H   0  0  0  0  0  0  0  0  0  0  0  0
    2.0322   -0.4708   -2.1946 H   0  0  0  0  0  0  0  0  0  0  0  0
    0.4195   -2.5399   -0.6304 H   0  0  0  0  0  0  0  0  0  0  0  0
   -0.2914   -1.1620   -1.4915 H   0  0  0  0  0  0  0  0  0  0  0  0
   -0.9111    1.5777   -3.6339 H   0  0  0  0  0  0  0  0  0  0  0  0
   -2.3364    1.5956   -2.5879 H   0  0  0  0  0  0  0  0  0  0  0  0
   -1.4555    0.0902   -2.8508 H   0  0  0  0  0  0  0  0  0  0  0  0
   -0.3789    2.5924   -1.4707 H   0  0  0  0  0  0  0  0  0  0  0  0
    0.5428    1.0883   -1.6675 H   0  0  0  0  0  0  0  0  0  0  0  0
   -1.5166    8.1552    1.0943 H   0  0  0  0  0  0  0  0  0  0  0  0
   -2.6817    7.9210    2.4311 H   0  0  0  0  0  0  0  0  0  0  0  0
   -3.2713    8.1841    0.7722 H   0  0  0  0  0  0  0  0  0  0  0  0
  -10.2332   -0.8712   -2.7246 H   0  0  0  0  0  0  0  0  0  0  0  0
   -9.7524   -2.1736   -1.6069 H   0  0  0  0  0  0  0  0  0  0  0  0
   -8.5184   -1.0561   -2.2575 H   0  0  0  0  0  0  0  0  0  0  0  0
   -2.6120    6.0736   -1.4639 H   0  0  0  0  0  0  0  0  0  0  0  0
   -2.1559    4.9651   -2.7864 H   0  0  0  0  0  0  0  0  0  0  0  0
   -1.2412    6.4734   -2.5409 H   0  0  0  0  0  0  0  0  0  0  0  0
   -7.8856    1.4301    1.1908 H   0  0  0  0  0  0  0  0  0  0  0  0
   -7.4145   -2.7445    0.4031 H   0  0  0  0  0  0  0  0  0  0  0  0
   -4.3003    4.1847    2.0604 H   0  0  0  0  0  0  0  0  0  0  0  0
   -3.2093   -4.8320    0.7789 H   0  0  0  0  0  0  0  0  0  0  0  0
    2.9172   -2.9374    4.3310 H   0  0  0  0  0  0  0  0  0  0  0  0
    6.5909   -0.2417    4.2651 H   0  0  0  0  0  0  0  0  0  0  0  0
    6.7334    3.4159    2.0501 H   0  0  0  0  0  0  0  0  0  0  0  0
    2.7822    5.2633    0.1987 H   0  0  0  0  0  0  0  0  0  0  0  0
   -0.6461    3.2401    8.9661 C   0  0  0  0  0  0  0  0  0  0  0  0
    0.2523    2.1467    8.8315 C   0  0  0  0  0  0  0  0  0  0  0  0
    1.5643    2.1429    8.3732 C   0  0  0  0  0  0  0  0  0  0  0  0
    2.1707    3.4334    8.2459 C   0  0  0  0  0  0  0  0  0  0  0  0
    1.3190    4.5695    8.4422 C   0  0  0  0  0  0  0  0  0  0  0  0
   -0.0021    4.4886    8.7823 C   0  0  0  0  0  0  0  0  0  0  0  0
    2.3317    0.9239    8.1514 C   0  0  0  0  0  0  0  0  0  0  0  0
    3.7171    1.1526    8.0324 C   0  0  0  0  0  0  0  0  0  0  0  0
    4.2336    2.4915    7.9449 C   0  0  0  0  0  0  0  0  0  0  0  0
    3.4579    3.5832    8.0045 N   0  0  0  0  0  0  0  0  0  0  0  0
    1.9150   -0.4640    8.0619 C   0  0  0  0  0  0  0  0  0  0  0  0
    2.9195   -1.4867    8.2147 C   0  0  0  0  0  0  0  0  0  0  0  0
    4.2056   -1.2100    8.1948 N   0  0  0  0  0  0  0  0  0  0  0  0
    4.6272    0.0468    8.0198 C   0  0  0  0  0  0  0  0  0  0  0  0
    6.0037    0.2925    7.8494 C   0  0  0  0  0  0  0  0  0  0  0  0
    6.4717    1.5862    7.7420 C   0  0  0  0  0  0  0  0  0  0  0  0
    5.6210    2.6705    7.8057 C   0  0  0  0  0  0  0  0  0  0  0  0
    0.6756   -0.9878    7.6191 C   0  0  0  0  0  0  0  0  0  0  0  0
    0.2113   -2.3324    7.7953 C   0  0  0  0  0  0  0  0  0  0  0  0
    1.1962   -3.2537    8.1941 C   0  0  0  0  0  0  0  0  0  0  0  0
    2.4891   -2.8493    8.3642 C   0  0  0  0  0  0  0  0  0  0  0  0
   -0.1860    0.9624    9.2136 O   0  0  0  0  0  0  0  0  0  0  0  0
   -0.9796    6.0481    8.7431 S   0  0  0  0  0  0  0  0  0  0  0  0
    0.6013   -4.8778    8.7927 S   0  0  0  0  0  0  0  0  0  0  0  0
    8.3006    1.8900    7.5942 S   0  0  0  0  0  0  0  0  0  0  0  0
   -1.2227   -2.5842    7.6941 C   0  0  0  0  0  0  0  0  0  0  0  0
   -2.0866   -1.5747    8.1956 C   0  0  0  0  0  0  0  0  0  0  0  0
   -3.4605   -1.4644    8.0695 C   0  0  0  0  0  0  0  0  0  0  0  0
   -4.1221   -2.6361    7.5842 C   0  0  0  0  0  0  0  0  0  0  0  0
   -3.2886   -3.7242    7.1510 C   0  0  0  0  0  0  0  0  0  0  0  0
   -1.9217   -3.7136    7.2026 C   0  0  0  0  0  0  0  0  0  0  0  0
   -4.1954   -0.3149    8.5823 C   0  0  0  0  0  0  0  0  0  0  0  0
   -5.5707   -0.5803    8.7376 C   0  0  0  0  0  0  0  0  0  0  0  0
   -6.1511   -1.7831    8.2005 C   0  0  0  0  0  0  0  0  0  0  0  0
   -5.4348   -2.7488    7.6050 N   0  0  0  0  0  0  0  0  0  0  0  0
   -3.7427    1.0018    9.0038 C   0  0  0  0  0  0  0  0  0  0  0  0
   -4.6371    1.7761    9.8259 C   0  0  0  0  0  0  0  0  0  0  0  0
   -5.8892    1.4282   10.0380 N   0  0  0  0  0  0  0  0  0  0  0  0
   -6.3977    0.3370    9.4619 C   0  0  0  0  0  0  0  0  0  0  0  0
   -7.7750    0.0712    9.5905 C   0  0  0  0  0  0  0  0  0  0  0  0
   -8.3156   -1.0556    9.0078 C   0  0  0  0  0  0  0  0  0  0  0  0
   -7.5371   -1.9728    8.3299 C   0  0  0  0  0  0  0  0  0  0  0  0
   -2.6088    1.7520    8.5814 C   0  0  0  0  0  0  0  0  0  0  0  0
   -2.0542    2.9120    9.2317 C   0  0  0  0  0  0  0  0  0  0  0  0
   -2.9317    3.5353   10.1356 C   0  0  0  0  0  0  0  0  0  0  0  0
   -4.1608    2.9998   10.3965 C   0  0  0  0  0  0  0  0  0  0  0  0
   -1.5569   -0.6415    8.9629 O   0  0  0  0  0  0  0  0  0  0  0  0
   -0.9554   -5.1628    6.5664 S   0  0  0  0  0  0  0  0  0  0  0  0
   -2.4419    5.0344   11.0695 S   0  0  0  0  0  0  0  0  0  0  0  0
  -10.1524   -1.3247    9.0882 S   0  0  0  0  0  0  0  0  0  0  0  0
   -0.9595    0.3696    8.2041 B   0  0  0  0  0  0  0  0  0  0  0  0
    8.4274    3.2667    8.0182 O   0  0  0  0  0  0  0  0  0  0  0  0
    8.6993    0.9291    8.8985 O   0  0  0  0  0  0  0  0  0  0  0  0
    8.5046    1.4558   10.1870 C   0  0  0  0  0  0  0  0  0  0  0  0
    1.5188   -5.7154    7.6859 O   0  0  0  0  0  0  0  0  0  0  0  0
    1.5782   -7.1037    7.9730 C   0  0  0  0  0  0  0  0  0  0  0  0
    1.2613   -5.0119   10.0742 O   0  0  0  0  0  0  0  0  0  0  0  0
   -1.5554   -6.2793    7.2694 O   0  0  0  0  0  0  0  0  0  0  0  0
   -1.6833   -5.1365    5.0449 O   0  0  0  0  0  0  0  0  0  0  0  0
   -2.5282   -6.2098    4.6652 C   0  0  0  0  0  0  0  0  0  0  0  0
  -10.3190   -2.6373    8.5108 O   0  0  0  0  0  0  0  0  0  0  0  0
  -10.5038   -0.1971    7.9062 O   0  0  0  0  0  0  0  0  0  0  0  0
  -10.3919   -0.6114    6.5684 C   0  0  0  0  0  0  0  0  0  0  0  0
   -3.1340    4.9203   12.3310 O   0  0  0  0  0  0  0  0  0  0  0  0
   -3.3911    5.9738   10.0532 O   0  0  0  0  0  0  0  0  0  0  0  0
   -3.5978    7.2946   10.5094 C   0  0  0  0  0  0  0  0  0  0  0  0
   -0.0687    7.0271    8.1915 O   0  0  0  0  0  0  0  0  0  0  0  0
   -1.8667    5.4010    7.4907 O   0  0  0  0  0  0  0  0  0  0  0  0
   -2.6071    6.3372    6.7331 C   0  0  0  0  0  0  0  0  0  0  0  0
   -0.1105   -0.0801    6.9657 N   0  0  0  0  0  0  0  0  0  0  0  0
    0.3030    0.0320    4.6169 C   0  0  0  0  0  0  0  0  0  0  0  0
   -0.6514   -0.4957    5.6835 C   0  0  0  0  0  0  0  0  0  0  0  0
   -2.0143    1.2943    7.4392 N   0  0  0  0  0  0  0  0  0  0  0  0
   -2.7310    2.3183    5.3289 C   0  0  0  0  0  0  0  0  0  0  0  0
   -1.6714    2.3001    6.4353 C   0  0  0  0  0  0  0  0  0  0  0  0
   -2.1228   -6.6702    3.7636 H   0  0  0  0  0  0  0  0  0  0  0  0
   -3.5260   -5.8141    4.4664 H   0  0  0  0  0  0  0  0  0  0  0  0
   -2.5746   -6.9373    5.4801 H   0  0  0  0  0  0  0  0  0  0  0  0
    0.6204   -7.5785    7.7507 H   0  0  0  0  0  0  0  0  0  0  0  0
    1.8271   -7.2512    9.0264 H   0  0  0  0  0  0  0  0  0  0  0  0
    2.3642   -7.5235    7.3477 H   0  0  0  0  0  0  0  0  0  0  0  0
    9.2715    1.0387   10.8376 H   0  0  0  0  0  0  0  0  0  0  0  0
    7.5127    1.1885   10.5648 H   0  0  0  0  0  0  0  0  0  0  0  0
    8.6019    2.5454   10.1599 H   0  0  0  0  0  0  0  0  0  0  0  0
   -0.1031   -0.1629    3.6320 H   0  0  0  0  0  0  0  0  0  0  0  0
    1.2645   -0.4648    4.7190 H   0  0  0  0  0  0  0  0  0  0  0  0
    0.4621    1.1028    4.7097 H   0  0  0  0  0  0  0  0  0  0  0  0
   -0.7046   -1.5831    5.5871 H   0  0  0  0  0  0  0  0  0  0  0  0
   -1.6504   -0.0866    5.5615 H   0  0  0  0  0  0  0  0  0  0  0  0
   -2.5847    3.2127    4.7276 H   0  0  0  0  0  0  0  0  0  0  0  0
   -3.7245    2.3593    5.7695 H   0  0  0  0  0  0  0  0  0  0  0  0
   -2.6723    1.4507    4.6773 H   0  0  0  0  0  0  0  0  0  0  0  0
   -1.6458    3.3031    6.8634 H   0  0  0  0  0  0  0  0  0  0  0  0
   -0.6901    2.0826    6.0218 H   0  0  0  0  0  0  0  0  0  0  0  0
   -2.7149    7.9127   10.3226 H   0  0  0  0  0  0  0  0  0  0  0  0
   -3.8293    7.2932   11.5772 H   0  0  0  0  0  0  0  0  0  0  0  0
   -4.4483    7.6921    9.9571 H   0  0  0  0  0  0  0  0  0  0  0  0
  -11.1648   -0.1002    5.9965 H   0  0  0  0  0  0  0  0  0  0  0  0
  -10.5444   -1.6935    6.4987 H   0  0  0  0  0  0  0  0  0  0  0  0
   -9.4044   -0.3573    6.1701 H   0  0  0  0  0  0  0  0  0  0  0  0
   -3.5870    6.4984    7.1877 H   0  0  0  0  0  0  0  0  0  0  0  0
   -2.7155    5.9262    5.7290 H   0  0  0  0  0  0  0  0  0  0  0  0
   -2.0628    7.2827    6.6754 H   0  0  0  0  0  0  0  0  0  0  0  0
   -8.3887    0.7722   10.1329 H   0  0  0  0  0  0  0  0  0  0  0  0
   -7.9915   -2.8602    7.9151 H   0  0  0  0  0  0  0  0  0  0  0  0
   -4.8048    3.4918   11.1105 H   0  0  0  0  0  0  0  0  0  0  0  0
   -3.7938   -4.6033    6.7825 H   0  0  0  0  0  0  0  0  0  0  0  0
    3.2317   -3.5646    8.6832 H   0  0  0  0  0  0  0  0  0  0  0  0
    6.6821   -0.5459    7.8366 H   0  0  0  0  0  0  0  0  0  0  0  0
    6.0198    3.6720    7.7783 H   0  0  0  0  0  0  0  0  0  0  0  0
    1.7446    5.5496    8.2792 H   0  0  0  0  0  0  0  0  0  0  0  0
  1  2  2  0  0  0  0
  2  3  1  0  0  0  0
  3  4  2  0  0  0  0
  3  7  1  0  0  0  0
  4  5  1  0  0  0  0
  5  6  2  0  0  0  0
  5111  1  0  0  0  0
  6  1  1  0  0  0  0
  6 23  1  0  0  0  0
  7 11  2  0  0  0  0
  8  7  1  0  0  0  0
  8  9  1  0  0  0  0
  9 10  2  0  0  0  0
 10  4  1  0  0  0  0
 11 12  1  0  0  0  0
 11 18  1  0  0  0  0
 12 13  2  0  0  0  0
 13 14  1  0  0  0  0
 14  8  1  0  0  0  0
 14 15  2  0  0  0  0
 15 16  1  0  0  0  0
 15109  1  0  0  0  0
 16 17  2  0  0  0  0
 16 25  1  0  0  0  0
 17  9  1  0  0  0  0
 17110  1  0  0  0  0
 18 70  1  0  0  0  0
 18 19  2  0  0  0  0
 19 20  1  0  0  0  0
 20 21  2  0  0  0  0
 20 24  1  0  0  0  0
 21 12  1  0  0  0  0
 21108  1  0  0  0  0
 22  2  1  0  0  0  0
 23 67  2  0  0  0  0
 23 68  1  0  0  0  0
 24 55  1  0  0  0  0
 24 57  2  0  0  0  0
 25 52  2  0  0  0  0
 25 53  1  0  0  0  0
 26 27  2  0  0  0  0
 27 28  1  0  0  0  0
 27 47  1  0  0  0  0
 28 29  2  0  0  0  0
 28 32  1  0  0  0  0
 29 30  1  0  0  0  0
 30 31  2  0  0  0  0
 30107  1  0  0  0  0
 31 26  1  0  0  0  0
 31 48  1  0  0  0  0
 32 36  2  0  0  0  0
 33 32  1  0  0  0  0
 33 34  1  0  0  0  0
 34 35  2  0  0  0  0
 35 29  1  0  0  0  0
 36 37  1  0  0  0  0
 36 43  1  0  0  0  0
 37 38  2  0  0  0  0
 38 39  1  0  0  0  0
 39 33  1  0  0  0  0
 39 40  2  0  0  0  0
 40 41  1  0  0  0  0
 40104  1  0  0  0  0
 41 42  2  0  0  0  0
 41 50  1  0  0  0  0
 42 34  1  0  0  0  0
 42105  1  0  0  0  0
 43 73  1  0  0  0  0
 43 44  2  0  0  0  0
 44 45  1  0  0  0  0
 45 46  2  0  0  0  0
 45 49  1  0  0  0  0
 46 37  1  0  0  0  0
 46106  1  0  0  0  0
 48 58  2  0  0  0  0
 48 59  1  0  0  0  0
 49 64  2  0  0  0  0
 49 65  1  0  0  0  0
 50 61  2  0  0  0  0
 50 62  1  0  0  0  0
 51 70  1  0  0  0  0
 51 73  1  0  0  0  0
 51 22  1  0  0  0  0
 51 47  1  0  0  0  0
 53 54  1  0  0  0  0
 54 82  1  0  0  0  0
 54 83  1  0  0  0  0
 54 84  1  0  0  0  0
 55 56  1  0  0  0  0
 56 79  1  0  0  0  0
 56 80  1  0  0  0  0
 56 81  1  0  0  0  0
 59 60  1  0  0  0  0
 60 76  1  0  0  0  0
 60 77  1  0  0  0  0
 60 78  1  0  0  0  0
 62 63  1  0  0  0  0
 63 98  1  0  0  0  0
 63 99  1  0  0  0  0
 63100  1  0  0  0  0
 65 66  1  0  0  0  0
 66 95  1  0  0  0  0
 66 96  1  0  0  0  0
 66 97  1  0  0  0  0
 68 69  1  0  0  0  0
 69101  1  0  0  0  0
 69102  1  0  0  0  0
 69103  1  0  0  0  0
 70 72  1  0  0  0  0
 71 72  1  0  0  0  0
 71 85  1  0  0  0  0
 71 86  1  0  0  0  0
 71 87  1  0  0  0  0
 72 88  1  0  0  0  0
 72 89  1  0  0  0  0
 73 75  1  0  0  0  0
 74 75  1  0  0  0  0
 74 90  1  0  0  0  0
 74 91  1  0  0  0  0
 74 92  1  0  0  0  0
 75 93  1  0  0  0  0
 75 94  1  0  0  0  0
112113  2  0  0  0  0
113114  1  0  0  0  0
114115  2  0  0  0  0
114118  1  0  0  0  0
115116  1  0  0  0  0
116117  2  0  0  0  0
116222  1  0  0  0  0
117112  1  0  0  0  0
117134  1  0  0  0  0
118122  2  0  0  0  0
119118  1  0  0  0  0
119120  1  0  0  0  0
120121  2  0  0  0  0
121115  1  0  0  0  0
122123  1  0  0  0  0
122129  1  0  0  0  0
123124  2  0  0  0  0
124125  1  0  0  0  0
125119  1  0  0  0  0
125126  2  0  0  0  0
126127  1  0  0  0  0
126220  1  0  0  0  0
127128  2  0  0  0  0
127136  1  0  0  0  0
128120  1  0  0  0  0
128221  1  0  0  0  0
129181  1  0  0  0  0
129130  2  0  0  0  0
130131  1  0  0  0  0
131132  2  0  0  0  0
131135  1  0  0  0  0
132123  1  0  0  0  0
132219  1  0  0  0  0
133113  1  0  0  0  0
134178  2  0  0  0  0
134179  1  0  0  0  0
135166  1  0  0  0  0
135168  2  0  0  0  0
136163  2  0  0  0  0
136164  1  0  0  0  0
137138  2  0  0  0  0
138139  1  0  0  0  0
138158  1  0  0  0  0
139140  2  0  0  0  0
139143  1  0  0  0  0
140141  1  0  0  0  0
141142  2  0  0  0  0
141218  1  0  0  0  0
142137  1  0  0  0  0
142159  1  0  0  0  0
143147  2  0  0  0  0
144143  1  0  0  0  0
144145  1  0  0  0  0
145146  2  0  0  0  0
146140  1  0  0  0  0
147148  1  0  0  0  0
147154  1  0  0  0  0
148149  2  0  0  0  0
149150  1  0  0  0  0
150144  1  0  0  0  0
150151  2  0  0  0  0
151152  1  0  0  0  0
151215  1  0  0  0  0
152153  2  0  0  0  0
152161  1  0  0  0  0
153145  1  0  0  0  0
153216  1  0  0  0  0
154184  1  0  0  0  0
154155  2  0  0  0  0
155156  1  0  0  0  0
156157  2  0  0  0  0
156160  1  0  0  0  0
157148  1  0  0  0  0
157217  1  0  0  0  0
159169  2  0  0  0  0
159170  1  0  0  0  0
160175  2  0  0  0  0
160176  1  0  0  0  0
161172  2  0  0  0  0
161173  1  0  0  0  0
162181  1  0  0  0  0
162184  1  0  0  0  0
162133  1  0  0  0  0
162158  1  0  0  0  0
164165  1  0  0  0  0
165193  1  0  0  0  0
165194  1  0  0  0  0
165195  1  0  0  0  0
166167  1  0  0  0  0
167190  1  0  0  0  0
167191  1  0  0  0  0
167192  1  0  0  0  0
170171  1  0  0  0  0
171187  1  0  0  0  0
171188  1  0  0  0  0
171189  1  0  0  0  0
173174  1  0  0  0  0
174209  1  0  0  0  0
174210  1  0  0  0  0
174211  1  0  0  0  0
176177  1  0  0  0  0
177206  1  0  0  0  0
177207  1  0  0  0  0
177208  1  0  0  0  0
179180  1  0  0  0  0
180212  1  0  0  0  0
180213  1  0  0  0  0
180214  1  0  0  0  0
181183  1  0  0  0  0
182183  1  0  0  0  0
182196  1  0  0  0  0
182197  1  0  0  0  0
182198  1  0  0  0  0
183199  1  0  0  0  0
183200  1  0  0  0  0
184186  1  0  0  0  0
185186  1  0  0  0  0
185201  1  0  0  0  0
185202  1  0  0  0  0
185203  1  0  0  0  0
186204  1  0  0  0  0
186205  1  0  0  0  0
M  CHG  1   1   1
M  END
