 energy: -432.857809191814 gnorm: 0.000578779993 xtb: 6.6.1 (8d0f1dd)
          11012412553D

222244  0     0  0            999 V2000
    0.1517    3.3002    0.8195 C   0  0  0  0  0  0  0  0  0  0  0  0
    0.9279    2.2060    1.2392 C   0  0  0  0  0  0  0  0  0  0  0  0
    2.3072    2.0267    1.1939 C   0  0  0  0  0  0  0  0  0  0  0  0
    3.0580    3.2000    0.8893 C   0  0  0  0  0  0  0  0  0  0  0  0
    2.3161    4.3396    0.4360 C   0  0  0  0  0  0  0  0  0  0  0  0
    0.9453    4.3929    0.4070 C   0  0  0  0  0  0  0  0  0  0  0  0
    2.9224    0.8082    1.6987 C   0  0  0  0  0  0  0  0  0  0  0  0
    4.2403    1.0356    2.1391 C   0  0  0  0  0  0  0  0  0  0  0  0
    4.9183    2.2656    1.8186 C   0  0  0  0  0  0  0  0  0  0  0  0
    4.3590    3.2749    1.1376 N   0  0  0  0  0  0  0  0  0  0  0  0
    2.3765   -0.5266    1.9431 C   0  0  0  0  0  0  0  0  0  0  0  0
    3.0711   -1.3424    2.9073 C   0  0  0  0  0  0  0  0  0  0  0  0
    4.2617   -1.0353    3.3957 N   0  0  0  0  0  0  0  0  0  0  0  0
    4.8807    0.0748    2.9865 C   0  0  0  0  0  0  0  0  0  0  0  0
    6.1604    0.3520    3.4969 C   0  0  0  0  0  0  0  0  0  0  0  0
    6.8071    1.5158    3.1361 C   0  0  0  0  0  0  0  0  0  0  0  0
    6.2326    2.4447    2.2942 C   0  0  0  0  0  0  0  0  0  0  0  0
    1.2719   -1.1855    1.3398 C   0  0  0  0  0  0  0  0  0  0  0  0
    0.5976   -2.3094    1.9076 C   0  0  0  0  0  0  0  0  0  0  0  0
    1.2419   -2.9781    2.9591 C   0  0  0  0  0  0  0  0  0  0  0  0
    2.4590   -2.5365    3.4004 C   0  0  0  0  0  0  0  0  0  0  0  0
    0.3066    1.2253    1.8454 O   0  0  0  0  0  0  0  0  0  0  0  0
    0.1242    5.9004   -0.2087 S   0  0  0  0  0  0  0  0  0  0  0  0
    0.1512   -4.1280    3.8891 S   0  0  0  0  0  0  0  0  0  0  0  0
    8.4122    1.8687    3.9587 S   0  0  0  0  0  0  0  0  0  0  0  0
   -0.8314   -2.5377    1.5740 C   0  0  0  0  0  0  0  0  0  0  0  0
   -1.6483   -1.4000    1.5116 C   0  0  0  0  0  0  0  0  0  0  0  0
   -2.9842   -1.3026    1.1365 C   0  0  0  0  0  0  0  0  0  0  0  0
   -3.6799   -2.5448    1.0455 C   0  0  0  0  0  0  0  0  0  0  0  0
   -2.8957   -3.7414    1.1508 C   0  0  0  0  0  0  0  0  0  0  0  0
   -1.5479   -3.7373    1.4026 C   0  0  0  0  0  0  0  0  0  0  0  0
   -3.6549   -0.0141    1.0936 C   0  0  0  0  0  0  0  0  0  0  0  0
   -5.0510   -0.1474    1.2167 C   0  0  0  0  0  0  0  0  0  0  0  0
   -5.6747   -1.4429    1.1271 C   0  0  0  0  0  0  0  0  0  0  0  0
   -5.0039   -2.5919    0.9695 N   0  0  0  0  0  0  0  0  0  0  0  0
   -3.1277    1.3534    1.0733 C   0  0  0  0  0  0  0  0  0  0  0  0
   -4.0125    2.3855    1.5506 C   0  0  0  0  0  0  0  0  0  0  0  0
   -5.3083    2.2007    1.7409 N   0  0  0  0  0  0  0  0  0  0  0  0
   -5.8528    1.0046    1.5031 C   0  0  0  0  0  0  0  0  0  0  0  0
   -7.2464    0.8621    1.6222 C   0  0  0  0  0  0  0  0  0  0  0  0
   -7.8250   -0.3834    1.4841 C   0  0  0  0  0  0  0  0  0  0  0  0
   -7.0767   -1.5166    1.2470 C   0  0  0  0  0  0  0  0  0  0  0  0
   -1.8962    1.8546    0.5713 C   0  0  0  0  0  0  0  0  0  0  0  0
   -1.3211    3.1201    0.9174 C   0  0  0  0  0  0  0  0  0  0  0  0
   -2.1913    4.0246    1.5400 C   0  0  0  0  0  0  0  0  0  0  0  0
   -3.4905    3.6897    1.7992 C   0  0  0  0  0  0  0  0  0  0  0  0
   -1.1440   -0.2626    1.9214 O   0  0  0  0  0  0  0  0  0  0  0  0
   -0.5083   -5.2362    1.4155 S   0  0  0  0  0  0  0  0  0  0  0  0
   -1.5314    5.5903    2.1762 S   0  0  0  0  0  0  0  0  0  0  0  0
   -9.6575   -0.4956    1.6301 S   0  0  0  0  0  0  0  0  0  0  0  0
   -0.3111    0.3333    0.9189 B   0  0  0  0  0  0  0  0  0  0  0  0
    8.9908    2.9390    3.1814 O   0  0  0  0  0  0  0  0  0  0  0  0
    7.6834    2.5600    5.3282 O   0  0  0  0  0  0  0  0  0  0  0  0
    7.3547    3.9280    5.2283 C   0  0  0  0  0  0  0  0  0  0  0  0
    0.9750   -5.5304    3.6776 O   0  0  0  0  0  0  0  0  0  0  0  0
    2.0938   -5.8258    4.4929 C   0  0  0  0  0  0  0  0  0  0  0  0
    0.4194   -3.6709    5.2553 O   0  0  0  0  0  0  0  0  0  0  0  0
   -1.4348   -6.3257    1.6386 O   0  0  0  0  0  0  0  0  0  0  0  0
   -0.2121   -5.1800   -0.2365 O   0  0  0  0  0  0  0  0  0  0  0  0
   -1.2419   -5.6130   -1.0915 C   0  0  0  0  0  0  0  0  0  0  0  0
   -9.9060   -1.8999    1.8846 O   0  0  0  0  0  0  0  0  0  0  0  0
   -9.9744   -0.2007    0.0172 O   0  0  0  0  0  0  0  0  0  0  0  0
   -9.7605   -1.2619   -0.8784 C   0  0  0  0  0  0  0  0  0  0  0  0
   -2.2236    5.7824    3.4405 O   0  0  0  0  0  0  0  0  0  0  0  0
   -2.3613    6.4692    1.0144 O   0  0  0  0  0  0  0  0  0  0  0  0
   -2.2981    7.8661    1.2001 C   0  0  0  0  0  0  0  0  0  0  0  0
    1.1320    6.5924   -0.9875 O   0  0  0  0  0  0  0  0  0  0  0  0
   -0.7985    4.9586   -1.2389 O   0  0  0  0  0  0  0  0  0  0  0  0
   -1.6714    5.6864   -2.0707 C   0  0  0  0  0  0  0  0  0  0  0  0
    0.7018   -0.5956    0.2324 N   0  0  0  0  0  0  0  0  0  0  0  0
    1.5429   -1.4562   -1.8843 C   0  0  0  0  0  0  0  0  0  0  0  0
    0.3881   -1.4768   -0.8807 C   0  0  0  0  0  0  0  0  0  0  0  0
   -1.1378    0.9919   -0.1921 N   0  0  0  0  0  0  0  0  0  0  0  0
   -1.5251    1.1880   -2.5866 C   0  0  0  0  0  0  0  0  0  0  0  0
   -0.5888    1.5324   -1.4257 C   0  0  0  0  0  0  0  0  0  0  0  0
   -0.7755   -6.0071   -1.9934 H   0  0  0  0  0  0  0  0  0  0  0  0
   -1.9064   -4.7818   -1.3467 H   0  0  0  0  0  0  0  0  0  0  0  0
   -1.8177   -6.4018   -0.5989 H   0  0  0  0  0  0  0  0  0  0  0  0
    2.0785   -6.8988    4.6813 H   0  0  0  0  0  0  0  0  0  0  0  0
    2.0206   -5.2857    5.4409 H   0  0  0  0  0  0  0  0  0  0  0  0
    3.0137   -5.5535    3.9694 H   0  0  0  0  0  0  0  0  0  0  0  0
    7.6349    4.3982    6.1695 H   0  0  0  0  0  0  0  0  0  0  0  0
    6.2848    4.0448    5.0387 H   0  0  0  0  0  0  0  0  0  0  0  0
    7.9264    4.3880    4.4163 H   0  0  0  0  0  0  0  0  0  0  0  0
    1.3104   -2.1116   -2.7194 H   0  0  0  0  0  0  0  0  0  0  0  0
    2.4539   -1.8083   -1.4060 H   0  0  0  0  0  0  0  0  0  0  0  0
    1.7205   -0.4533   -2.2628 H   0  0  0  0  0  0  0  0  0  0  0  0
    0.2484   -2.5135   -0.5570 H   0  0  0  0  0  0  0  0  0  0  0  0
   -0.5339   -1.1338   -1.3484 H   0  0  0  0  0  0  0  0  0  0  0  0
   -1.1172    1.5853   -3.5122 H   0  0  0  0  0  0  0  0  0  0  0  0
   -2.5038    1.6310   -2.4149 H   0  0  0  0  0  0  0  0  0  0  0  0
   -1.6499    0.1134   -2.6913 H   0  0  0  0  0  0  0  0  0  0  0  0
   -0.4934    2.6209   -1.3880 H   0  0  0  0  0  0  0  0  0  0  0  0
    0.3989    1.1033   -1.5881 H   0  0  0  0  0  0  0  0  0  0  0  0
   -1.3221    8.2547    0.8945 H   0  0  0  0  0  0  0  0  0  0  0  0
   -2.4836    8.1165    2.2477 H   0  0  0  0  0  0  0  0  0  0  0  0
   -3.0785    8.3061    0.5801 H   0  0  0  0  0  0  0  0  0  0  0  0
  -10.4480   -1.1309   -1.7126 H   0  0  0  0  0  0  0  0  0  0  0  0
   -9.9673   -2.2159   -0.3821 H   0  0  0  0  0  0  0  0  0  0  0  0
   -8.7285   -1.2575   -1.2433 H   0  0  0  0  0  0  0  0  0  0  0  0
   -2.4969    6.1036   -1.4883 H   0  0  0  0  0  0  0  0  0  0  0  0
   -2.0598    4.9868   -2.8103 H   0  0  0  0  0  0  0  0  0  0  0  0
   -1.1325    6.4909   -2.5780 H   0  0  0  0  0  0  0  0  0  0  0  0
   -7.8421    1.7350    1.8350 H   0  0  0  0  0  0  0  0  0  0  0  0
   -7.5549   -2.4826    1.1942 H   0  0  0  0  0  0  0  0  0  0  0  0
   -4.1499    4.4106    2.2566 H   0  0  0  0  0  0  0  0  0  0  0  0
   -3.4095   -4.6876    1.0737 H   0  0  0  0  0  0  0  0  0  0  0  0
    2.9639   -3.0359    4.2119 H   0  0  0  0  0  0  0  0  0  0  0  0
    6.6088   -0.3491    4.1821 H   0  0  0  0  0  0  0  0  0  0  0  0
    6.7687    3.3414    2.0244 H   0  0  0  0  0  0  0  0  0  0  0  0
    2.8710    5.2109    0.1218 H   0  0  0  0  0  0  0  0  0  0  0  0
   -0.6975    3.2120    8.9338 C   0  0  0  0  0  0  0  0  0  0  0  0
    0.2089    2.1249    8.8544 C   0  0  0  0  0  0  0  0  0  0  0  0
    1.5429    2.1256    8.4536 C   0  0  0  0  0  0  0  0  0  0  0  0
    2.1417    3.4186    8.3266 C   0  0  0  0  0  0  0  0  0  0  0  0
    1.2808    4.5507    8.4886 C   0  0  0  0  0  0  0  0  0  0  0  0
   -0.0539    4.4612    8.7723 C   0  0  0  0  0  0  0  0  0  0  0  0
    2.3263    0.9117    8.2686 C   0  0  0  0  0  0  0  0  0  0  0  0
    3.7116    1.1490    8.1761 C   0  0  0  0  0  0  0  0  0  0  0  0
    4.2159    2.4908    8.0679 C   0  0  0  0  0  0  0  0  0  0  0  0
    3.4345    3.5786    8.1044 N   0  0  0  0  0  0  0  0  0  0  0  0
    1.9303   -0.4851    8.1839 C   0  0  0  0  0  0  0  0  0  0  0  0
    2.9364   -1.4930    8.3967 C   0  0  0  0  0  0  0  0  0  0  0  0
    4.2236   -1.2088    8.4038 N   0  0  0  0  0  0  0  0  0  0  0  0
    4.6307    0.0499    8.1925 C   0  0  0  0  0  0  0  0  0  0  0  0
    6.0023    0.3027    8.0074 C   0  0  0  0  0  0  0  0  0  0  0  0
    6.4570    1.5981    7.8579 C   0  0  0  0  0  0  0  0  0  0  0  0
    5.6010    2.6767    7.9094 C   0  0  0  0  0  0  0  0  0  0  0  0
    0.7241   -1.0253    7.6787 C   0  0  0  0  0  0  0  0  0  0  0  0
    0.2589   -2.3693    7.8419 C   0  0  0  0  0  0  0  0  0  0  0  0
    1.2311   -3.2736    8.3053 C   0  0  0  0  0  0  0  0  0  0  0  0
    2.5111   -2.8567    8.5395 C   0  0  0  0  0  0  0  0  0  0  0  0
   -0.2463    0.9378    9.2059 O   0  0  0  0  0  0  0  0  0  0  0  0
   -1.0390    6.0039    8.7304 S   0  0  0  0  0  0  0  0  0  0  0  0
    0.6535   -4.9168    8.8423 S   0  0  0  0  0  0  0  0  0  0  0  0
    8.2697    1.8985    7.6520 S   0  0  0  0  0  0  0  0  0  0  0  0
   -1.1711   -2.6284    7.6590 C   0  0  0  0  0  0  0  0  0  0  0  0
   -2.0668   -1.6141    8.0894 C   0  0  0  0  0  0  0  0  0  0  0  0
   -3.4303   -1.5018    7.8612 C   0  0  0  0  0  0  0  0  0  0  0  0
   -4.0537   -2.6751    7.3339 C   0  0  0  0  0  0  0  0  0  0  0  0
   -3.1963   -3.7713    6.9873 C   0  0  0  0  0  0  0  0  0  0  0  0
   -1.8359   -3.7637    7.1354 C   0  0  0  0  0  0  0  0  0  0  0  0
   -4.2032   -0.3450    8.2948 C   0  0  0  0  0  0  0  0  0  0  0  0
   -5.5898   -0.5951    8.3141 C   0  0  0  0  0  0  0  0  0  0  0  0
   -6.1241   -1.7996    7.7368 C   0  0  0  0  0  0  0  0  0  0  0  0
   -5.3650   -2.7841    7.2325 N   0  0  0  0  0  0  0  0  0  0  0  0
   -3.7909    0.9748    8.7513 C   0  0  0  0  0  0  0  0  0  0  0  0
   -4.7477    1.7452    9.5012 C   0  0  0  0  0  0  0  0  0  0  0  0
   -6.0250    1.4200    9.5782 N   0  0  0  0  0  0  0  0  0  0  0  0
   -6.4794    0.3457    8.9260 C   0  0  0  0  0  0  0  0  0  0  0  0
   -7.8685    0.1252    8.8535 C   0  0  0  0  0  0  0  0  0  0  0  0
   -8.3562   -1.0033    8.2285 C   0  0  0  0  0  0  0  0  0  0  0  0
   -7.5179   -1.9666    7.7037 C   0  0  0  0  0  0  0  0  0  0  0  0
   -2.6316    1.7268    8.4152 C   0  0  0  0  0  0  0  0  0  0  0  0
   -2.1259    2.8762    9.1117 C   0  0  0  0  0  0  0  0  0  0  0  0
   -3.0582    3.4791    9.9717 C   0  0  0  0  0  0  0  0  0  0  0  0
   -4.3102    2.9528   10.1310 C   0  0  0  0  0  0  0  0  0  0  0  0
   -1.5932   -0.6666    8.8749 O   0  0  0  0  0  0  0  0  0  0  0  0
   -0.8684   -5.2347    6.5826 S   0  0  0  0  0  0  0  0  0  0  0  0
   -2.6123    4.9475   10.9567 S   0  0  0  0  0  0  0  0  0  0  0  0
  -10.1797   -1.2064    8.0146 S   0  0  0  0  0  0  0  0  0  0  0  0
   -0.9539    0.3451    8.1391 B   0  0  0  0  0  0  0  0  0  0  0  0
    8.4129    3.2991    7.9933 O   0  0  0  0  0  0  0  0  0  0  0  0
    8.7042    1.0191    9.0139 O   0  0  0  0  0  0  0  0  0  0  0  0
    8.4479    1.6070   10.2622 C   0  0  0  0  0  0  0  0  0  0  0  0
    1.6225   -5.7052    7.7344 O   0  0  0  0  0  0  0  0  0  0  0  0
    1.6739   -7.1002    7.9684 C   0  0  0  0  0  0  0  0  0  0  0  0
    1.2853   -5.0901   10.1372 O   0  0  0  0  0  0  0  0  0  0  0  0
   -1.4840   -6.3231    7.3256 O   0  0  0  0  0  0  0  0  0  0  0  0
   -1.5794   -5.2843    5.0503 O   0  0  0  0  0  0  0  0  0  0  0  0
   -2.4329   -6.3625    4.7175 C   0  0  0  0  0  0  0  0  0  0  0  0
  -10.3603   -2.6369    7.9066 O   0  0  0  0  0  0  0  0  0  0  0  0
  -10.2208   -0.5719    6.4649 O   0  0  0  0  0  0  0  0  0  0  0  0
   -9.9127   -1.4426    5.4040 C   0  0  0  0  0  0  0  0  0  0  0  0
   -3.3507    4.8112   12.1939 O   0  0  0  0  0  0  0  0  0  0  0  0
   -3.5257    5.9200    9.9333 O   0  0  0  0  0  0  0  0  0  0  0  0
   -3.6682    7.2492   10.3810 C   0  0  0  0  0  0  0  0  0  0  0  0
   -0.1051    7.0312    8.3119 O   0  0  0  0  0  0  0  0  0  0  0  0
   -1.8189    5.4202    7.3819 O   0  0  0  0  0  0  0  0  0  0  0  0
   -2.5828    6.3741    6.6737 C   0  0  0  0  0  0  0  0  0  0  0  0
   -0.0327   -0.1275    6.9801 N   0  0  0  0  0  0  0  0  0  0  0  0
    0.5333    0.0103    4.6671 C   0  0  0  0  0  0  0  0  0  0  0  0
   -0.4801   -0.5422    5.6651 C   0  0  0  0  0  0  0  0  0  0  0  0
   -1.9469    1.2682    7.3228 N   0  0  0  0  0  0  0  0  0  0  0  0
   -2.4682    2.2501    5.1270 C   0  0  0  0  0  0  0  0  0  0  0  0
   -1.5391    2.2764    6.3470 C   0  0  0  0  0  0  0  0  0  0  0  0
   -2.0362   -6.8597    3.8318 H   0  0  0  0  0  0  0  0  0  0  0  0
   -3.4292   -5.9697    4.5038 H   0  0  0  0  0  0  0  0  0  0  0  0
   -2.4818   -7.0555    5.5625 H   0  0  0  0  0  0  0  0  0  0  0  0
    0.7222   -7.5665    7.7037 H   0  0  0  0  0  0  0  0  0  0  0  0
    1.8937   -7.2883    9.0223 H   0  0  0  0  0  0  0  0  0  0  0  0
    2.4765   -7.4974    7.3487 H   0  0  0  0  0  0  0  0  0  0  0  0
    9.1973    1.2428   10.9638 H   0  0  0  0  0  0  0  0  0  0  0  0
    7.4475    1.3394   10.6180 H   0  0  0  0  0  0  0  0  0  0  0  0
    8.5239    2.6960   10.1803 H   0  0  0  0  0  0  0  0  0  0  0  0
    0.1748   -0.1497    3.6584 H   0  0  0  0  0  0  0  0  0  0  0  0
    1.4866   -0.4944    4.8039 H   0  0  0  0  0  0  0  0  0  0  0  0
    0.6900    1.0768    4.8038 H   0  0  0  0  0  0  0  0  0  0  0  0
   -0.5084   -1.6298    5.5592 H   0  0  0  0  0  0  0  0  0  0  0  0
   -1.4757   -0.1476    5.4809 H   0  0  0  0  0  0  0  0  0  0  0  0
   -2.3593    3.1906    4.5917 H   0  0  0  0  0  0  0  0  0  0  0  0
   -3.5028    2.1577    5.4506 H   0  0  0  0  0  0  0  0  0  0  0  0
   -2.2395    1.4393    4.4410 H   0  0  0  0  0  0  0  0  0  0  0  0
   -1.6034    3.2808    6.7690 H   0  0  0  0  0  0  0  0  0  0  0  0
   -0.5088    2.0999    6.0454 H   0  0  0  0  0  0  0  0  0  0  0  0
   -2.7485    7.8175   10.2107 H   0  0  0  0  0  0  0  0  0  0  0  0
   -3.9202    7.2652   11.4446 H   0  0  0  0  0  0  0  0  0  0  0  0
   -4.4838    7.6920    9.8104 H   0  0  0  0  0  0  0  0  0  0  0  0
  -10.5467   -1.1863    4.5565 H   0  0  0  0  0  0  0  0  0  0  0  0
  -10.1142   -2.4767    5.7014 H   0  0  0  0  0  0  0  0  0  0  0  0
   -8.8611   -1.3438    5.1194 H   0  0  0  0  0  0  0  0  0  0  0  0
   -3.5842    6.4499    7.1043 H   0  0  0  0  0  0  0  0  0  0  0  0
   -2.6373    6.0389    5.6377 H   0  0  0  0  0  0  0  0  0  0  0  0
   -2.0883    7.3479    6.7080 H   0  0  0  0  0  0  0  0  0  0  0  0
   -8.5309    0.8580    9.2853 H   0  0  0  0  0  0  0  0  0  0  0  0
   -7.9249   -2.8713    7.2796 H   0  0  0  0  0  0  0  0  0  0  0  0
   -5.0073    3.4466   10.7906 H   0  0  0  0  0  0  0  0  0  0  0  0
   -3.6771   -4.6563    6.6023 H   0  0  0  0  0  0  0  0  0  0  0  0
    3.2440   -3.5686    8.8866 H   0  0  0  0  0  0  0  0  0  0  0  0
    6.6892   -0.5287    8.0088 H   0  0  0  0  0  0  0  0  0  0  0  0
    5.9897    3.6806    7.8488 H   0  0  0  0  0  0  0  0  0  0  0  0
    1.7077    5.5335    8.3499 H   0  0  0  0  0  0  0  0  0  0  0  0
  1  2  2  0  0  0  0
  2  3  1  0  0  0  0
  3  4  2  0  0  0  0
  3  7  1  0  0  0  0
  4  5  1  0  0  0  0
  5  6  2  0  0  0  0
  5111  1  0  0  0  0
  6  1  1  0  0  0  0
  6 23  1  0  0  0  0
  7 11  2  0  0  0  0
  8  7  1  0  0  0  0
  8  9  1  0  0  0  0
  9 10  2  0  0  0  0
 10  4  1  0  0  0  0
 11 12  1  0  0  0  0
 11 18  1  0  0  0  0
 12 13  2  0  0  0  0
 13 14  1  0  0  0  0
 14  8  1  0  0  0  0
 14 15  2  0  0  0  0
 15 16  1  0  0  0  0
 15109  1  0  0  0  0
 16 17  2  0  0  0  0
 16 25  1  0  0  0  0
 17  9  1  0  0  0  0
 17110  1  0  0  0  0
 18 70  1  0  0  0  0
 18 19  2  0  0  0  0
 19 20  1  0  0  0  0
 20 21  2  0  0  0  0
 20 24  1  0  0  0  0
 21 12  1  0  0  0  0
 21108  1  0  0  0  0
 22  2  1  0  0  0  0
 23 67  2  0  0  0  0
 23 68  1  0  0  0  0
 24 55  1  0  0  0  0
 24 57  2  0  0  0  0
 25 52  2  0  0  0  0
 25 53  1  0  0  0  0
 26 27  2  0  0  0  0
 27 28  1  0  0  0  0
 27 47  1  0  0  0  0
 28 29  2  0  0  0  0
 28 32  1  0  0  0  0
 29 30  1  0  0  0  0
 30 31  2  0  0  0  0
 30107  1  0  0  0  0
 31 26  1  0  0  0  0
 31 48  1  0  0  0  0
 32 36  2  0  0  0  0
 33 32  1  0  0  0  0
 33 34  1  0  0  0  0
 34 35  2  0  0  0  0
 35 29  1  0  0  0  0
 36 37  1  0  0  0  0
 36 43  1  0  0  0  0
 37 38  2  0  0  0  0
 38 39  1  0  0  0  0
 39 33  1  0  0  0  0
 39 40  2  0  0  0  0
 40 41  1  0  0  0  0
 40104  1  0  0  0  0
 41 42  2  0  0  0  0
 41 50  1  0  0  0  0
 42 34  1  0  0  0  0
 42105  1  0  0  0  0
 43 73  1  0  0  0  0
 43 44  2  0  0  0  0
 44 45  1  0  0  0  0
 45 46  2  0  0  0  0
 45 49  1  0  0  0  0
 46 37  1  0  0  0  0
 46106  1  0  0  0  0
 48 58  2  0  0  0  0
 48 59  1  0  0  0  0
 49 64  2  0  0  0  0
 49 65  1  0  0  0  0
 50 61  2  0  0  0  0
 50 62  1  0  0  0  0
 51 70  1  0  0  0  0
 51 73  1  0  0  0  0
 51 22  1  0  0  0  0
 51 47  1  0  0  0  0
 53 54  1  0  0  0  0
 54 82  1  0  0  0  0
 54 83  1  0  0  0  0
 54 84  1  0  0  0  0
 55 56  1  0  0  0  0
 56 79  1  0  0  0  0
 56 80  1  0  0  0  0
 56 81  1  0  0  0  0
 59 60  1  0  0  0  0
 60 76  1  0  0  0  0
 60 77  1  0  0  0  0
 60 78  1  0  0  0  0
 62 63  1  0  0  0  0
 63 98  1  0  0  0  0
 63 99  1  0  0  0  0
 63100  1  0  0  0  0
 65 66  1  0  0  0  0
 66 95  1  0  0  0  0
 66 96  1  0  0  0  0
 66 97  1  0  0  0  0
 68 69  1  0  0  0  0
 69101  1  0  0  0  0
 69102  1  0  0  0  0
 69103  1  0  0  0  0
 70 72  1  0  0  0  0
 71 72  1  0  0  0  0
 71 85  1  0  0  0  0
 71 86  1  0  0  0  0
 71 87  1  0  0  0  0
 72 88  1  0  0  0  0
 72 89  1  0  0  0  0
 73 75  1  0  0  0  0
 74 75  1  0  0  0  0
 74 90  1  0  0  0  0
 74 91  1  0  0  0  0
 74 92  1  0  0  0  0
 75 93  1  0  0  0  0
 75 94  1  0  0  0  0
112113  2  0  0  0  0
113114  1  0  0  0  0
114115  2  0  0  0  0
114118  1  0  0  0  0
115116  1  0  0  0  0
116117  2  0  0  0  0
116222  1  0  0  0  0
117112  1  0  0  0  0
117134  1  0  0  0  0
118122  2  0  0  0  0
119118  1  0  0  0  0
119120  1  0  0  0  0
120121  2  0  0  0  0
121115  1  0  0  0  0
122123  1  0  0  0  0
122129  1  0  0  0  0
123124  2  0  0  0  0
124125  1  0  0  0  0
125119  1  0  0  0  0
125126  2  0  0  0  0
126127  1  0  0  0  0
126220  1  0  0  0  0
127128  2  0  0  0  0
127136  1  0  0  0  0
128120  1  0  0  0  0
128221  1  0  0  0  0
129181  1  0  0  0  0
129130  2  0  0  0  0
130131  1  0  0  0  0
131132  2  0  0  0  0
131135  1  0  0  0  0
132123  1  0  0  0  0
132219  1  0  0  0  0
133113  1  0  0  0  0
134178  2  0  0  0  0
134179  1  0  0  0  0
135166  1  0  0  0  0
135168  2  0  0  0  0
136163  2  0  0  0  0
136164  1  0  0  0  0
137138  2  0  0  0  0
138139  1  0  0  0  0
138158  1  0  0  0  0
139140  2  0  0  0  0
139143  1  0  0  0  0
140141  1  0  0  0  0
141142  2  0  0  0  0
141218  1  0  0  0  0
142137  1  0  0  0  0
142159  1  0  0  0  0
143147  2  0  0  0  0
144143  1  0  0  0  0
144145  1  0  0  0  0
145146  2  0  0  0  0
146140  1  0  0  0  0
147148  1  0  0  0  0
147154  1  0  0  0  0
148149  2  0  0  0  0
149150  1  0  0  0  0
150144  1  0  0  0  0
150151  2  0  0  0  0
151152  1  0  0  0  0
151215  1  0  0  0  0
152153  2  0  0  0  0
152161  1  0  0  0  0
153145  1  0  0  0  0
153216  1  0  0  0  0
154184  1  0  0  0  0
154155  2  0  0  0  0
155156  1  0  0  0  0
156157  2  0  0  0  0
156160  1  0  0  0  0
157148  1  0  0  0  0
157217  1  0  0  0  0
159169  2  0  0  0  0
159170  1  0  0  0  0
160175  2  0  0  0  0
160176  1  0  0  0  0
161172  2  0  0  0  0
161173  1  0  0  0  0
162181  1  0  0  0  0
162184  1  0  0  0  0
162133  1  0  0  0  0
162158  1  0  0  0  0
164165  1  0  0  0  0
165193  1  0  0  0  0
165194  1  0  0  0  0
165195  1  0  0  0  0
166167  1  0  0  0  0
167190  1  0  0  0  0
167191  1  0  0  0  0
167192  1  0  0  0  0
170171  1  0  0  0  0
171187  1  0  0  0  0
171188  1  0  0  0  0
171189  1  0  0  0  0
173174  1  0  0  0  0
174209  1  0  0  0  0
174210  1  0  0  0  0
174211  1  0  0  0  0
176177  1  0  0  0  0
177206  1  0  0  0  0
177207  1  0  0  0  0
177208  1  0  0  0  0
179180  1  0  0  0  0
180212  1  0  0  0  0
180213  1  0  0  0  0
180214  1  0  0  0  0
181183  1  0  0  0  0
182183  1  0  0  0  0
182196  1  0  0  0  0
182197  1  0  0  0  0
182198  1  0  0  0  0
183199  1  0  0  0  0
183200  1  0  0  0  0
184186  1  0  0  0  0
185186  1  0  0  0  0
185201  1  0  0  0  0
185202  1  0  0  0  0
185203  1  0  0  0  0
186204  1  0  0  0  0
186205  1  0  0  0  0
M  END
