 xtb: 6.7.1 (edcfbbe)
          12102416023D

111124  0     0  0            999 V2000
   -0.3838    3.2665    0.9465 C   0  0  0  0  0  0  0  0  0  0  0  0
    0.4499    2.1550    1.1931 C   0  0  0  0  0  0  0  0  0  0  0  0
    1.8300    2.0445    1.0497 C   0  0  0  0  0  0  0  0  0  0  0  0
    2.5254    3.2740    0.8464 C   0  0  0  0  0  0  0  0  0  0  0  0
    1.7224    4.4376    0.6183 C   0  0  0  0  0  0  0  0  0  0  0  0
    0.3530    4.4393    0.6646 C   0  0  0  0  0  0  0  0  0  0  0  0
    2.5312    0.7921    1.2818 C   0  0  0  0  0  0  0  0  0  0  0  0
    3.8982    0.9808    1.5568 C   0  0  0  0  0  0  0  0  0  0  0  0
    4.5134    2.2634    1.3379 C   0  0  0  0  0  0  0  0  0  0  0  0
    3.8442    3.3524    0.9379 N   0  0  0  0  0  0  0  0  0  0  0  0
    2.0557   -0.5844    1.3448 C   0  0  0  0  0  0  0  0  0  0  0  0
    2.8825   -1.5445    2.0279 C   0  0  0  0  0  0  0  0  0  0  0  0
    4.1278   -1.2851    2.3863 N   0  0  0  0  0  0  0  0  0  0  0  0
    4.6730   -0.1010    2.0882 C   0  0  0  0  0  0  0  0  0  0  0  0
    6.0399    0.1019    2.3492 C   0  0  0  0  0  0  0  0  0  0  0  0
    6.6210    1.3213    2.0645 C   0  0  0  0  0  0  0  0  0  0  0  0
    5.8975    2.3826    1.5644 C   0  0  0  0  0  0  0  0  0  0  0  0
    0.9489   -1.1733    0.6871 C   0  0  0  0  0  0  0  0  0  0  0  0
    0.3702   -2.4412    1.0061 C   0  0  0  0  0  0  0  0  0  0  0  0
    1.1599   -3.2893    1.7976 C   0  0  0  0  0  0  0  0  0  0  0  0
    2.3714   -2.8614    2.2654 C   0  0  0  0  0  0  0  0  0  0  0  0
   -0.1128    1.0632    1.6601 O   0  0  0  0  0  0  0  0  0  0  0  0
   -0.5324    5.9787    0.2346 S   0  0  0  0  0  0  0  0  0  0  0  0
    0.4767   -4.9348    2.2506 S   0  0  0  0  0  0  0  0  0  0  0  0
    8.4164    1.5390    2.4353 S   0  0  0  0  0  0  0  0  0  0  0  0
   -1.0441   -2.6615    0.6501 C   0  0  0  0  0  0  0  0  0  0  0  0
   -1.9215   -1.5714    0.8192 C   0  0  0  0  0  0  0  0  0  0  0  0
   -3.2488   -1.4630    0.4212 C   0  0  0  0  0  0  0  0  0  0  0  0
   -3.8726   -2.6869    0.0308 C   0  0  0  0  0  0  0  0  0  0  0  0
   -3.0279   -3.8392   -0.0996 C   0  0  0  0  0  0  0  0  0  0  0  0
   -1.6876   -3.8261    0.1860 C   0  0  0  0  0  0  0  0  0  0  0  0
   -3.9951   -0.2253    0.5839 C   0  0  0  0  0  0  0  0  0  0  0  0
   -5.3869   -0.4372    0.5767 C   0  0  0  0  0  0  0  0  0  0  0  0
   -5.9300   -1.7101    0.1806 C   0  0  0  0  0  0  0  0  0  0  0  0
   -5.1821   -2.7737   -0.1446 N   0  0  0  0  0  0  0  0  0  0  0  0
   -3.5539    1.1441    0.8312 C   0  0  0  0  0  0  0  0  0  0  0  0
   -4.5190    2.0513    1.3956 C   0  0  0  0  0  0  0  0  0  0  0  0
   -5.8079    1.7706    1.4746 N   0  0  0  0  0  0  0  0  0  0  0  0
   -6.2681    0.6073    1.0063 C   0  0  0  0  0  0  0  0  0  0  0  0
   -7.6573    0.3855    0.9852 C   0  0  0  0  0  0  0  0  0  0  0  0
   -8.1536   -0.8232    0.5420 C   0  0  0  0  0  0  0  0  0  0  0  0
   -7.3291   -1.8555    0.1474 C   0  0  0  0  0  0  0  0  0  0  0  0
   -2.3383    1.7807    0.4660 C   0  0  0  0  0  0  0  0  0  0  0  0
   -1.8433    3.0137    1.0026 C   0  0  0  0  0  0  0  0  0  0  0  0
   -2.7981    3.7838    1.6834 C   0  0  0  0  0  0  0  0  0  0  0  0
   -4.0809    3.3371    1.8392 C   0  0  0  0  0  0  0  0  0  0  0  0
   -1.4783   -0.5170    1.4621 O   0  0  0  0  0  0  0  0  0  0  0  0
   -0.5469   -5.1860   -0.2707 S   0  0  0  0  0  0  0  0  0  0  0  0
   -2.3014    5.3470    2.4733 S   0  0  0  0  0  0  0  0  0  0  0  0
   -9.9841   -1.0415    0.4634 S   0  0  0  0  0  0  0  0  0  0  0  0
   -0.6956    0.3053    0.6127 B   0  0  0  0  0  0  0  0  0  0  0  0
    8.7073    2.8736    1.9578 O   0  0  0  0  0  0  0  0  0  0  0  0
    8.2281    1.6094    4.0923 O   0  0  0  0  0  0  0  0  0  0  0  0
    7.7036    2.8019    4.6185 C   0  0  0  0  0  0  0  0  0  0  0  0
    1.5149   -5.8272    1.2955 O   0  0  0  0  0  0  0  0  0  0  0  0
    2.6500   -6.3937    1.9076 C   0  0  0  0  0  0  0  0  0  0  0  0
    0.9188   -5.1184    3.6182 O   0  0  0  0  0  0  0  0  0  0  0  0
   -1.3450   -6.3853   -0.1788 O   0  0  0  0  0  0  0  0  0  0  0  0
   -0.5012   -4.7383   -1.8860 O   0  0  0  0  0  0  0  0  0  0  0  0
   -1.5516   -5.1651   -2.7173 C   0  0  0  0  0  0  0  0  0  0  0  0
  -10.1513   -2.4299    0.0921 O   0  0  0  0  0  0  0  0  0  0  0  0
  -10.1917   -0.1135   -0.9138 O   0  0  0  0  0  0  0  0  0  0  0  0
   -9.8335   -0.7097   -2.1336 C   0  0  0  0  0  0  0  0  0  0  0  0
   -3.1009    5.4378    3.6764 O   0  0  0  0  0  0  0  0  0  0  0  0
   -3.0955    6.2383    1.2843 O   0  0  0  0  0  0  0  0  0  0  0  0
   -3.2210    7.6082    1.5935 C   0  0  0  0  0  0  0  0  0  0  0  0
    0.4635    6.8175   -0.4022 O   0  0  0  0  0  0  0  0  0  0  0  0
   -1.3554    5.1391   -0.9552 O   0  0  0  0  0  0  0  0  0  0  0  0
   -2.1747    5.9383   -1.7757 C   0  0  0  0  0  0  0  0  0  0  0  0
    0.3498   -0.4128   -0.2864 N   0  0  0  0  0  0  0  0  0  0  0  0
    1.2112   -0.8552   -2.5168 C   0  0  0  0  0  0  0  0  0  0  0  0
    0.0542   -1.0870   -1.5423 C   0  0  0  0  0  0  0  0  0  0  0  0
   -1.5506    1.0912   -0.4230 N   0  0  0  0  0  0  0  0  0  0  0  0
   -1.9430    1.7011   -2.7441 C   0  0  0  0  0  0  0  0  0  0  0  0
   -1.0126    1.8571   -1.5384 C   0  0  0  0  0  0  0  0  0  0  0  0
   -1.1356   -5.3539   -3.7066 H   0  0  0  0  0  0  0  0  0  0  0  0
   -2.3272   -4.3956   -2.7792 H   0  0  0  0  0  0  0  0  0  0  0  0
   -1.9815   -6.0881   -2.3168 H   0  0  0  0  0  0  0  0  0  0  0  0
    2.6984   -7.4465    1.6295 H   0  0  0  0  0  0  0  0  0  0  0  0
    2.5634   -6.3068    2.9957 H   0  0  0  0  0  0  0  0  0  0  0  0
    3.5497   -5.8759    1.5663 H   0  0  0  0  0  0  0  0  0  0  0  0
    8.0974    2.9172    5.6271 H   0  0  0  0  0  0  0  0  0  0  0  0
    6.6102    2.7626    4.6490 H   0  0  0  0  0  0  0  0  0  0  0  0
    8.0198    3.6514    4.0042 H   0  0  0  0  0  0  0  0  0  0  0  0
    0.9950   -1.3542   -3.4576 H   0  0  0  0  0  0  0  0  0  0  0  0
    2.1288   -1.2696   -2.1051 H   0  0  0  0  0  0  0  0  0  0  0  0
    1.3700    0.2027   -2.7075 H   0  0  0  0  0  0  0  0  0  0  0  0
   -0.0596   -2.1688   -1.4221 H   0  0  0  0  0  0  0  0  0  0  0  0
   -0.8759   -0.6910   -1.9445 H   0  0  0  0  0  0  0  0  0  0  0  0
   -1.5404    2.2610   -3.5841 H   0  0  0  0  0  0  0  0  0  0  0  0
   -2.9284    2.0928   -2.5010 H   0  0  0  0  0  0  0  0  0  0  0  0
   -2.0525    0.6603   -3.0376 H   0  0  0  0  0  0  0  0  0  0  0  0
   -0.9452    2.9240   -1.3147 H   0  0  0  0  0  0  0  0  0  0  0  0
   -0.0142    1.4920   -1.7701 H   0  0  0  0  0  0  0  0  0  0  0  0
   -2.2783    8.1347    1.4150 H   0  0  0  0  0  0  0  0  0  0  0  0
   -3.5211    7.7320    2.6373 H   0  0  0  0  0  0  0  0  0  0  0  0
   -3.9968    8.0144    0.9452 H   0  0  0  0  0  0  0  0  0  0  0  0
  -10.4674   -0.2818   -2.9088 H   0  0  0  0  0  0  0  0  0  0  0  0
   -9.9996   -1.7911   -2.0829 H   0  0  0  0  0  0  0  0  0  0  0  0
   -8.7814   -0.5147   -2.3647 H   0  0  0  0  0  0  0  0  0  0  0  0
   -3.0704    6.2509   -1.2338 H   0  0  0  0  0  0  0  0  0  0  0  0
   -2.4568    5.3268   -2.6324 H   0  0  0  0  0  0  0  0  0  0  0  0
   -1.6238    6.8173   -2.1208 H   0  0  0  0  0  0  0  0  0  0  0  0
   -8.3149    1.1753    1.3108 H   0  0  0  0  0  0  0  0  0  0  0  0
   -7.7550   -2.7977   -0.1627 H   0  0  0  0  0  0  0  0  0  0  0  0
   -4.7983    3.9548    2.3573 H   0  0  0  0  0  0  0  0  0  0  0  0
   -3.4890   -4.7624   -0.4161 H   0  0  0  0  0  0  0  0  0  0  0  0
    2.9751   -3.5157    2.8750 H   0  0  0  0  0  0  0  0  0  0  0  0
    6.6146   -0.7045    2.7758 H   0  0  0  0  0  0  0  0  0  0  0  0
    6.3877    3.3224    1.3604 H   0  0  0  0  0  0  0  0  0  0  0  0
    2.2288    5.3636    0.3883 H   0  0  0  0  0  0  0  0  0  0  0  0
  1  2  4  0  0  0  0
  2  3  4  0  0  0  0
  3  4  1  0  0  0  0
  4  5  4  0  0  0  0
  1  6  4  0  0  0  0
  5  6  2  0  0  0  0
  3  7  1  0  0  0  0
  7  8  4  0  0  0  0
  8  9  1  0  0  0  0
  4 10  4  0  0  0  0
  9 10  4  0  0  0  0
  7 11  1  0  0  0  0
 11 12  1  0  0  0  0
 12 13  4  0  0  0  0
  8 14  1  0  0  0  0
 13 14  4  0  0  0  0
 14 15  4  0  0  0  0
 15 16  4  0  0  0  0
  9 17  4  0  0  0  0
 16 17  4  0  0  0  0
 11 18  4  0  0  0  0
 18 19  4  0  0  0  0
 19 20  4  0  0  0  0
 12 21  1  0  0  0  0
 20 21  2  0  0  0  0
  2 22  1  0  0  0  0
  6 23  1  0  0  0  0
 20 24  1  0  0  0  0
 16 25  1  0  0  0  0
 19 26  1  0  0  0  0
 26 27  4  0  0  0  0
 27 28  4  0  0  0  0
 28 29  1  0  0  0  0
 29 30  1  0  0  0  0
 26 31  4  0  0  0  0
 30 31  2  0  0  0  0
 28 32  1  0  0  0  0
 32 33  4  0  0  0  0
 33 34  1  0  0  0  0
 29 35  4  0  0  0  0
 34 35  4  0  0  0  0
 32 36  4  0  0  0  0
 36 37  1  0  0  0  0
 37 38  4  0  0  0  0
 33 39  1  0  0  0  0
 38 39  4  0  0  0  0
 39 40  4  0  0  0  0
 40 41  4  0  0  0  0
 34 42  4  0  0  0  0
 41 42  4  0  0  0  0
 36 43  4  0  0  0  0
  1 44  1  0  0  0  0
 43 44  4  0  0  0  0
 44 45  4  0  0  0  0
 37 46  1  0  0  0  0
 45 46  2  0  0  0  0
 27 47  1  0  0  0  0
 31 48  1  0  0  0  0
 45 49  1  0  0  0  0
 41 50  1  0  0  0  0
 22 51  1  0  0  0  0
 47 51  1  0  0  0  0
 25 52  2  0  0  0  0
 25 53  1  0  0  0  0
 53 54  1  0  0  0  0
 24 55  1  0  0  0  0
 55 56  1  0  0  0  0
 24 57  2  0  0  0  0
 48 58  2  0  0  0  0
 48 59  1  0  0  0  0
 59 60  1  0  0  0  0
 50 61  2  0  0  0  0
 50 62  1  0  0  0  0
 62 63  1  0  0  0  0
 49 64  2  0  0  0  0
 49 65  1  0  0  0  0
 65 66  1  0  0  0  0
 23 67  2  0  0  0  0
 23 68  1  0  0  0  0
 68 69  1  0  0  0  0
 18 70  1  0  0  0  0
 51 70  1  0  0  0  0
 70 72  1  0  0  0  0
 71 72  1  0  0  0  0
 43 73  1  0  0  0  0
 51 73  1  0  0  0  0
 73 75  1  0  0  0  0
 74 75  1  0  0  0  0
 60 76  1  0  0  0  0
 60 77  1  0  0  0  0
 60 78  1  0  0  0  0
 56 79  1  0  0  0  0
 56 80  1  0  0  0  0
 56 81  1  0  0  0  0
 54 82  1  0  0  0  0
 54 83  1  0  0  0  0
 54 84  1  0  0  0  0
 71 85  1  0  0  0  0
 71 86  1  0  0  0  0
 71 87  1  0  0  0  0
 72 88  1  0  0  0  0
 72 89  1  0  0  0  0
 74 90  1  0  0  0  0
 74 91  1  0  0  0  0
 74 92  1  0  0  0  0
 75 93  1  0  0  0  0
 75 94  1  0  0  0  0
 66 95  1  0  0  0  0
 66 96  1  0  0  0  0
 66 97  1  0  0  0  0
 63 98  1  0  0  0  0
 63 99  1  0  0  0  0
 63100  1  0  0  0  0
 69101  1  0  0  0  0
 69102  1  0  0  0  0
 69103  1  0  0  0  0
 40104  1  0  0  0  0
 42105  1  0  0  0  0
 46106  1  0  0  0  0
 30107  1  0  0  0  0
 21108  1  0  0  0  0
 15109  1  0  0  0  0
 17110  1  0  0  0  0
  5111  1  0  0  0  0
M  CHG  1   1   0
M  END
