xtb: 6.7.1 (edcfbbe)_xtb: 6.7.1 (edcfbbe)
 OpenBabel12102416073D

222248  0  0  0  0  0  0  0  0999 V2000
   -0.3838    3.2665    0.9465 C   0  0  1  0  0  0  0  0  0  0  0  0
    0.4499    2.1550    1.1931 C   0  0  0  0  0  0  0  0  0  0  0  0
    1.8300    2.0445    1.0497 C   0  0  0  0  0  0  0  0  0  0  0  0
    2.5254    3.2740    0.8464 C   0  0  1  0  0  0  0  0  0  0  0  0
    1.7224    4.4376    0.6183 C   0  0  0  0  0  0  0  0  0  0  0  0
    0.3530    4.4393    0.6646 C   0  0  0  0  0  0  0  0  0  0  0  0
    2.5312    0.7921    1.2818 C   0  0  0  0  0  0  0  0  0  0  0  0
    3.8982    0.9808    1.5568 C   0  0  0  0  0  0  0  0  0  0  0  0
    4.5134    2.2634    1.3379 C   0  0  0  0  0  0  0  0  0  0  0  0
    3.8442    3.3524    0.9379 N   0  0  0  0  0  0  0  0  0  0  0  0
    2.0557   -0.5844    1.3448 C   0  0  2  0  0  0  0  0  0  0  0  0
    2.8825   -1.5445    2.0279 C   0  0  0  0  0  0  0  0  0  0  0  0
    4.1278   -1.2851    2.3863 N   0  0  0  0  0  0  0  0  0  0  0  0
    4.6730   -0.1010    2.0882 C   0  0  0  0  0  0  0  0  0  0  0  0
    6.0399    0.1019    2.3492 C   0  0  0  0  0  0  0  0  0  0  0  0
    6.6210    1.3213    2.0645 C   0  0  0  0  0  0  0  0  0  0  0  0
    5.8975    2.3826    1.5644 C   0  0  0  0  0  0  0  0  0  0  0  0
    0.9489   -1.1733    0.6871 C   0  0  0  0  0  0  0  0  0  0  0  0
    0.3702   -2.4412    1.0061 C   0  0  0  0  0  0  0  0  0  0  0  0
    1.1599   -3.2893    1.7976 C   0  0  0  0  0  0  0  0  0  0  0  0
    2.3714   -2.8614    2.2654 C   0  0  0  0  0  0  0  0  0  0  0  0
   -0.1128    1.0632    1.6601 O   0  0  0  0  0  0  0  0  0  0  0  0
   -0.5324    5.9787    0.2346 S   0  0  1  0  0  0  0  0  0  0  0  0
    0.4767   -4.9348    2.2506 S   0  0  1  0  0  0  0  0  0  0  0  0
    8.4164    1.5390    2.4353 S   0  0  1  0  0  0  0  0  0  0  0  0
   -1.0441   -2.6615    0.6501 C   0  0  2  0  0  0  0  0  0  0  0  0
   -1.9215   -1.5714    0.8192 C   0  0  0  0  0  0  0  0  0  0  0  0
   -3.2488   -1.4630    0.4212 C   0  0  0  0  0  0  0  0  0  0  0  0
   -3.8726   -2.6869    0.0308 C   0  0  1  0  0  0  0  0  0  0  0  0
   -3.0279   -3.8392   -0.0996 C   0  0  0  0  0  0  0  0  0  0  0  0
   -1.6876   -3.8261    0.1860 C   0  0  0  0  0  0  0  0  0  0  0  0
   -3.9951   -0.2253    0.5839 C   0  0  0  0  0  0  0  0  0  0  0  0
   -5.3869   -0.4372    0.5767 C   0  0  1  0  0  0  0  0  0  0  0  0
   -5.9300   -1.7101    0.1806 C   0  0  0  0  0  0  0  0  0  0  0  0
   -5.1821   -2.7737   -0.1446 N   0  0  0  0  0  0  0  0  0  0  0  0
   -3.5539    1.1441    0.8312 C   0  0  0  0  0  0  0  0  0  0  0  0
   -4.5190    2.0513    1.3956 C   0  0  0  0  0  0  0  0  0  0  0  0
   -5.8079    1.7706    1.4746 N   0  0  0  0  0  0  0  0  0  0  0  0
   -6.2681    0.6073    1.0063 C   0  0  0  0  0  0  0  0  0  0  0  0
   -7.6573    0.3855    0.9852 C   0  0  0  0  0  0  0  0  0  0  0  0
   -8.1536   -0.8232    0.5420 C   0  0  0  0  0  0  0  0  0  0  0  0
   -7.3291   -1.8555    0.1474 C   0  0  0  0  0  0  0  0  0  0  0  0
   -2.3383    1.7807    0.4660 C   0  0  0  0  0  0  0  0  0  0  0  0
   -1.8433    3.0137    1.0026 C   0  0  0  0  0  0  0  0  0  0  0  0
   -2.7981    3.7838    1.6834 C   0  0  0  0  0  0  0  0  0  0  0  0
   -4.0809    3.3371    1.8392 C   0  0  0  0  0  0  0  0  0  0  0  0
   -1.4783   -0.5170    1.4621 O   0  0  0  0  0  0  0  0  0  0  0  0
   -0.5469   -5.1860   -0.2707 S   0  0  1  0  0  0  0  0  0  0  0  0
   -2.3014    5.3470    2.4733 S   0  0  2  0  0  0  0  0  0  0  0  0
   -9.9841   -1.0415    0.4634 S   0  0  2  0  0  0  0  0  0  0  0  0
   -0.6956    0.3053    0.6127 B   0  0  2  0  0  0  0  0  0  0  0  0
    8.7073    2.8736    1.9578 O   0  0  0  0  0  0  0  0  0  0  0  0
    8.2281    1.6094    4.0923 O   0  0  0  0  0  0  0  0  0  0  0  0
    7.7036    2.8019    4.6185 C   0  0  0  0  0  0  0  0  0  0  0  0
    1.5149   -5.8272    1.2955 O   0  0  0  0  0  0  0  0  0  0  0  0
    2.6500   -6.3937    1.9076 C   0  0  0  0  0  0  0  0  0  0  0  0
    0.9188   -5.1184    3.6182 O   0  0  0  0  0  0  0  0  0  0  0  0
   -1.3450   -6.3853   -0.1788 O   0  0  0  0  0  0  0  0  0  0  0  0
   -0.5012   -4.7383   -1.8860 O   0  0  0  0  0  0  0  0  0  0  0  0
   -1.5516   -5.1651   -2.7173 C   0  0  0  0  0  0  0  0  0  0  0  0
  -10.1513   -2.4299    0.0921 O   0  0  0  0  0  0  0  0  0  0  0  0
  -10.1917   -0.1135   -0.9138 O   0  0  0  0  0  0  0  0  0  0  0  0
   -9.8335   -0.7097   -2.1336 C   0  0  0  0  0  0  0  0  0  0  0  0
   -3.1009    5.4378    3.6764 O   0  0  0  0  0  0  0  0  0  0  0  0
   -3.0955    6.2383    1.2843 O   0  0  0  0  0  0  0  0  0  0  0  0
   -3.2210    7.6082    1.5935 C   0  0  0  0  0  0  0  0  0  0  0  0
    0.4635    6.8175   -0.4022 O   0  0  0  0  0  0  0  0  0  0  0  0
   -1.3554    5.1391   -0.9552 O   0  0  0  0  0  0  0  0  0  0  0  0
   -2.1747    5.9383   -1.7757 C   0  0  0  0  0  0  0  0  0  0  0  0
    0.3498   -0.4128   -0.2864 N   0  0  0  0  0  0  0  0  0  0  0  0
    1.2112   -0.8552   -2.5168 C   0  0  0  0  0  0  0  0  0  0  0  0
    0.0542   -1.0870   -1.5423 C   0  0  0  0  0  0  0  0  0  0  0  0
   -1.5506    1.0912   -0.4230 N   0  0  0  0  0  0  0  0  0  0  0  0
   -1.9430    1.7011   -2.7441 C   0  0  0  0  0  0  0  0  0  0  0  0
   -1.0126    1.8571   -1.5384 C   0  0  0  0  0  0  0  0  0  0  0  0
   -1.1356   -5.3539   -3.7066 H   0  0  0  0  0  0  0  0  0  0  0  0
   -2.3272   -4.3956   -2.7792 H   0  0  0  0  0  0  0  0  0  0  0  0
   -1.9815   -6.0881   -2.3168 H   0  0  0  0  0  0  0  0  0  0  0  0
    2.6984   -7.4465    1.6295 H   0  0  0  0  0  0  0  0  0  0  0  0
    2.5634   -6.3068    2.9957 H   0  0  0  0  0  0  0  0  0  0  0  0
    3.5497   -5.8759    1.5663 H   0  0  0  0  0  0  0  0  0  0  0  0
    8.0974    2.9172    5.6271 H   0  0  0  0  0  0  0  0  0  0  0  0
    6.6102    2.7626    4.6490 H   0  0  0  0  0  0  0  0  0  0  0  0
    8.0198    3.6514    4.0042 H   0  0  0  0  0  0  0  0  0  0  0  0
    0.9950   -1.3542   -3.4576 H   0  0  0  0  0  0  0  0  0  0  0  0
    2.1288   -1.2696   -2.1051 H   0  0  0  0  0  0  0  0  0  0  0  0
    1.3700    0.2027   -2.7075 H   0  0  0  0  0  0  0  0  0  0  0  0
   -0.0596   -2.1688   -1.4221 H   0  0  0  0  0  0  0  0  0  0  0  0
   -0.8759   -0.6910   -1.9445 H   0  0  0  0  0  0  0  0  0  0  0  0
   -1.5404    2.2610   -3.5841 H   0  0  0  0  0  0  0  0  0  0  0  0
   -2.9284    2.0928   -2.5010 H   0  0  0  0  0  0  0  0  0  0  0  0
   -2.0525    0.6603   -3.0376 H   0  0  0  0  0  0  0  0  0  0  0  0
   -0.9452    2.9240   -1.3147 H   0  0  0  0  0  0  0  0  0  0  0  0
   -0.0142    1.4920   -1.7701 H   0  0  0  0  0  0  0  0  0  0  0  0
   -2.2783    8.1347    1.4150 H   0  0  0  0  0  0  0  0  0  0  0  0
   -3.5211    7.7320    2.6373 H   0  0  0  0  0  0  0  0  0  0  0  0
   -3.9968    8.0144    0.9452 H   0  0  0  0  0  0  0  0  0  0  0  0
  -10.4674   -0.2818   -2.9088 H   0  0  0  0  0  0  0  0  0  0  0  0
   -9.9996   -1.7911   -2.0829 H   0  0  0  0  0  0  0  0  0  0  0  0
   -8.7814   -0.5147   -2.3647 H   0  0  0  0  0  0  0  0  0  0  0  0
   -3.0704    6.2509   -1.2338 H   0  0  0  0  0  0  0  0  0  0  0  0
   -2.4568    5.3268   -2.6324 H   0  0  0  0  0  0  0  0  0  0  0  0
   -1.6238    6.8173   -2.1208 H   0  0  0  0  0  0  0  0  0  0  0  0
   -8.3149    1.1753    1.3108 H   0  0  0  0  0  0  0  0  0  0  0  0
   -7.7550   -2.7977   -0.1627 H   0  0  0  0  0  0  0  0  0  0  0  0
   -4.7983    3.9548    2.3573 H   0  0  0  0  0  0  0  0  0  0  0  0
   -3.4890   -4.7624   -0.4161 H   0  0  0  0  0  0  0  0  0  0  0  0
    2.9751   -3.5157    2.8750 H   0  0  0  0  0  0  0  0  0  0  0  0
    6.6146   -0.7045    2.7758 H   0  0  0  0  0  0  0  0  0  0  0  0
    6.3877    3.3224    1.3604 H   0  0  0  0  0  0  0  0  0  0  0  0
    2.2288    5.3636    0.3883 H   0  0  0  0  0  0  0  0  0  0  0  0
   -0.3838    3.2665    8.9465 C   0  0  1  0  0  0  0  0  0  0  0  0
    0.4499    2.1550    9.1931 C   0  0  0  0  0  0  0  0  0  0  0  0
    1.8300    2.0445    9.0497 C   0  0  0  0  0  0  0  0  0  0  0  0
    2.5254    3.2740    8.8464 C   0  0  1  0  0  0  0  0  0  0  0  0
    1.7224    4.4376    8.6183 C   0  0  0  0  0  0  0  0  0  0  0  0
    0.3530    4.4393    8.6646 C   0  0  0  0  0  0  0  0  0  0  0  0
    2.5312    0.7921    9.2818 C   0  0  0  0  0  0  0  0  0  0  0  0
    3.8982    0.9808    9.5568 C   0  0  0  0  0  0  0  0  0  0  0  0
    4.5134    2.2634    9.3379 C   0  0  0  0  0  0  0  0  0  0  0  0
    3.8442    3.3524    8.9379 N   0  0  0  0  0  0  0  0  0  0  0  0
    2.0557   -0.5844    9.3448 C   0  0  2  0  0  0  0  0  0  0  0  0
    2.8825   -1.5445   10.0279 C   0  0  0  0  0  0  0  0  0  0  0  0
    4.1278   -1.2851   10.3863 N   0  0  0  0  0  0  0  0  0  0  0  0
    4.6730   -0.1010   10.0882 C   0  0  0  0  0  0  0  0  0  0  0  0
    6.0399    0.1019   10.3492 C   0  0  0  0  0  0  0  0  0  0  0  0
    6.6210    1.3213   10.0645 C   0  0  0  0  0  0  0  0  0  0  0  0
    5.8975    2.3826    9.5644 C   0  0  0  0  0  0  0  0  0  0  0  0
    0.9489   -1.1733    8.6871 C   0  0  0  0  0  0  0  0  0  0  0  0
    0.3702   -2.4412    9.0061 C   0  0  0  0  0  0  0  0  0  0  0  0
    1.1599   -3.2893    9.7976 C   0  0  0  0  0  0  0  0  0  0  0  0
    2.3714   -2.8614   10.2654 C   0  0  0  0  0  0  0  0  0  0  0  0
   -0.1128    1.0632    9.6601 O   0  0  0  0  0  0  0  0  0  0  0  0
   -0.5324    5.9787    8.2346 S   0  0  1  0  0  0  0  0  0  0  0  0
    0.4767   -4.9348   10.2506 S   0  0  1  0  0  0  0  0  0  0  0  0
    8.4164    1.5390   10.4353 S   0  0  1  0  0  0  0  0  0  0  0  0
   -1.0441   -2.6615    8.6501 C   0  0  2  0  0  0  0  0  0  0  0  0
   -1.9215   -1.5714    8.8192 C   0  0  0  0  0  0  0  0  0  0  0  0
   -3.2488   -1.4630    8.4212 C   0  0  0  0  0  0  0  0  0  0  0  0
   -3.8726   -2.6869    8.0308 C   0  0  1  0  0  0  0  0  0  0  0  0
   -3.0279   -3.8392    7.9004 C   0  0  0  0  0  0  0  0  0  0  0  0
   -1.6876   -3.8261    8.1860 C   0  0  0  0  0  0  0  0  0  0  0  0
   -3.9951   -0.2253    8.5839 C   0  0  0  0  0  0  0  0  0  0  0  0
   -5.3869   -0.4372    8.5767 C   0  0  1  0  0  0  0  0  0  0  0  0
   -5.9300   -1.7101    8.1806 C   0  0  0  0  0  0  0  0  0  0  0  0
   -5.1821   -2.7737    7.8554 N   0  0  0  0  0  0  0  0  0  0  0  0
   -3.5539    1.1441    8.8312 C   0  0  0  0  0  0  0  0  0  0  0  0
   -4.5190    2.0513    9.3956 C   0  0  0  0  0  0  0  0  0  0  0  0
   -5.8079    1.7706    9.4746 N   0  0  0  0  0  0  0  0  0  0  0  0
   -6.2681    0.6073    9.0063 C   0  0  0  0  0  0  0  0  0  0  0  0
   -7.6573    0.3855    8.9852 C   0  0  0  0  0  0  0  0  0  0  0  0
   -8.1536   -0.8232    8.5420 C   0  0  0  0  0  0  0  0  0  0  0  0
   -7.3291   -1.8555    8.1474 C   0  0  0  0  0  0  0  0  0  0  0  0
   -2.3383    1.7807    8.4660 C   0  0  0  0  0  0  0  0  0  0  0  0
   -1.8433    3.0137    9.0026 C   0  0  0  0  0  0  0  0  0  0  0  0
   -2.7981    3.7838    9.6834 C   0  0  0  0  0  0  0  0  0  0  0  0
   -4.0809    3.3371    9.8392 C   0  0  0  0  0  0  0  0  0  0  0  0
   -1.4783   -0.5170    9.4621 O   0  0  0  0  0  0  0  0  0  0  0  0
   -0.5469   -5.1860    7.7293 S   0  0  1  0  0  0  0  0  0  0  0  0
   -2.3014    5.3470   10.4733 S   0  0  2  0  0  0  0  0  0  0  0  0
   -9.9841   -1.0415    8.4634 S   0  0  2  0  0  0  0  0  0  0  0  0
   -0.6956    0.3053    8.6127 B   0  0  2  0  0  0  0  0  0  0  0  0
    8.7073    2.8736    9.9578 O   0  0  0  0  0  0  0  0  0  0  0  0
    8.2281    1.6094   12.0923 O   0  0  0  0  0  0  0  0  0  0  0  0
    7.7036    2.8019   12.6185 C   0  0  0  0  0  0  0  0  0  0  0  0
    1.5149   -5.8272    9.2955 O   0  0  0  0  0  0  0  0  0  0  0  0
    2.6500   -6.3937    9.9076 C   0  0  0  0  0  0  0  0  0  0  0  0
    0.9188   -5.1184   11.6182 O   0  0  0  0  0  0  0  0  0  0  0  0
   -1.3450   -6.3853    7.8212 O   0  0  0  0  0  0  0  0  0  0  0  0
   -0.5012   -4.7383    6.1140 O   0  0  0  0  0  0  0  0  0  0  0  0
   -1.5516   -5.1651    5.2827 C   0  0  0  0  0  0  0  0  0  0  0  0
  -10.1513   -2.4299    8.0921 O   0  0  0  0  0  0  0  0  0  0  0  0
  -10.1917   -0.1135    7.0862 O   0  0  0  0  0  0  0  0  0  0  0  0
   -9.8335   -0.7097    5.8664 C   0  0  0  0  0  0  0  0  0  0  0  0
   -3.1009    5.4378   11.6764 O   0  0  0  0  0  0  0  0  0  0  0  0
   -3.0955    6.2383    9.2843 O   0  0  0  0  0  0  0  0  0  0  0  0
   -3.2210    7.6082    9.5935 C   0  0  0  0  0  0  0  0  0  0  0  0
    0.4635    6.8175    7.5978 O   0  0  0  0  0  0  0  0  0  0  0  0
   -1.3554    5.1391    7.0448 O   0  0  0  0  0  0  0  0  0  0  0  0
   -2.1747    5.9383    6.2243 C   0  0  0  0  0  0  0  0  0  0  0  0
    0.3498   -0.4128    7.7136 N   0  0  0  0  0  0  0  0  0  0  0  0
    1.2112   -0.8552    5.4832 C   0  0  0  0  0  0  0  0  0  0  0  0
    0.0542   -1.0870    6.4577 C   0  0  0  0  0  0  0  0  0  0  0  0
   -1.5506    1.0912    7.5770 N   0  0  0  0  0  0  0  0  0  0  0  0
   -1.9430    1.7011    5.2559 C   0  0  0  0  0  0  0  0  0  0  0  0
   -1.0126    1.8571    6.4616 C   0  0  0  0  0  0  0  0  0  0  0  0
   -1.1356   -5.3539    4.2934 H   0  0  0  0  0  0  0  0  0  0  0  0
   -2.3272   -4.3956    5.2208 H   0  0  0  0  0  0  0  0  0  0  0  0
   -1.9815   -6.0881    5.6832 H   0  0  0  0  0  0  0  0  0  0  0  0
    2.6984   -7.4465    9.6295 H   0  0  0  0  0  0  0  0  0  0  0  0
    2.5634   -6.3068   10.9957 H   0  0  0  0  0  0  0  0  0  0  0  0
    3.5497   -5.8759    9.5663 H   0  0  0  0  0  0  0  0  0  0  0  0
    8.0974    2.9172   13.6271 H   0  0  0  0  0  0  0  0  0  0  0  0
    6.6102    2.7626   12.6490 H   0  0  0  0  0  0  0  0  0  0  0  0
    8.0198    3.6514   12.0042 H   0  0  0  0  0  0  0  0  0  0  0  0
    0.9950   -1.3542    4.5424 H   0  0  0  0  0  0  0  0  0  0  0  0
    2.1288   -1.2696    5.8949 H   0  0  0  0  0  0  0  0  0  0  0  0
    1.3700    0.2027    5.2925 H   0  0  0  0  0  0  0  0  0  0  0  0
   -0.0596   -2.1688    6.5779 H   0  0  0  0  0  0  0  0  0  0  0  0
   -0.8759   -0.6910    6.0555 H   0  0  0  0  0  0  0  0  0  0  0  0
   -1.5404    2.2610    4.4159 H   0  0  0  0  0  0  0  0  0  0  0  0
   -2.9284    2.0928    5.4990 H   0  0  0  0  0  0  0  0  0  0  0  0
   -2.0525    0.6603    4.9624 H   0  0  0  0  0  0  0  0  0  0  0  0
   -0.9452    2.9240    6.6853 H   0  0  0  0  0  0  0  0  0  0  0  0
   -0.0142    1.4920    6.2299 H   0  0  0  0  0  0  0  0  0  0  0  0
   -2.2783    8.1347    9.4150 H   0  0  0  0  0  0  0  0  0  0  0  0
   -3.5211    7.7320   10.6373 H   0  0  0  0  0  0  0  0  0  0  0  0
   -3.9968    8.0144    8.9452 H   0  0  0  0  0  0  0  0  0  0  0  0
  -10.4674   -0.2818    5.0912 H   0  0  0  0  0  0  0  0  0  0  0  0
   -9.9996   -1.7911    5.9171 H   0  0  0  0  0  0  0  0  0  0  0  0
   -8.7814   -0.5147    5.6353 H   0  0  0  0  0  0  0  0  0  0  0  0
   -3.0704    6.2509    6.7662 H   0  0  0  0  0  0  0  0  0  0  0  0
   -2.4568    5.3268    5.3676 H   0  0  0  0  0  0  0  0  0  0  0  0
   -1.6238    6.8173    5.8792 H   0  0  0  0  0  0  0  0  0  0  0  0
   -8.3149    1.1753    9.3108 H   0  0  0  0  0  0  0  0  0  0  0  0
   -7.7550   -2.7977    7.8373 H   0  0  0  0  0  0  0  0  0  0  0  0
   -4.7983    3.9548   10.3573 H   0  0  0  0  0  0  0  0  0  0  0  0
   -3.4890   -4.7624    7.5839 H   0  0  0  0  0  0  0  0  0  0  0  0
    2.9751   -3.5157   10.8750 H   0  0  0  0  0  0  0  0  0  0  0  0
    6.6146   -0.7045   10.7758 H   0  0  0  0  0  0  0  0  0  0  0  0
    6.3877    3.3224    9.3604 H   0  0  0  0  0  0  0  0  0  0  0  0
    2.2288    5.3636    8.3883 H   0  0  0  0  0  0  0  0  0  0  0  0
  1  2  1  6  0  0  0
  1  6  1  0  0  0  0
  1 44  1  0  0  0  0
  2  3  2  0  0  0  0
  2 22  1  0  0  0  0
  3  7  1  0  0  0  0
  4  3  1  1  0  0  0
  4  5  1  0  0  0  0
  4 10  1  0  0  0  0
  5  6  2  0  0  0  0
  5111  1  0  0  0  0
  6 23  1  0  0  0  0
  7  8  2  0  0  0  0
  8  9  1  0  0  0  0
  8 14  1  0  0  0  0
  9 10  2  0  0  0  0
  9 17  1  0  0  0  0
 11  7  1  6  0  0  0
 11 12  1  0  0  0  0
 11 18  1  0  0  0  0
 12 13  2  0  0  0  0
 12 21  1  0  0  0  0
 13 14  1  0  0  0  0
 14 15  2  0  0  0  0
 15 16  1  0  0  0  0
 15109  1  0  0  0  0
 16 17  2  0  0  0  0
 16 25  1  0  0  0  0
 17110  1  0  0  0  0
 18 19  2  0  0  0  0
 18 70  1  0  0  0  0
 19 20  1  0  0  0  0
 20 21  2  0  0  0  0
 20 24  1  0  0  0  0
 21108  1  0  0  0  0
 23 67  2  6  0  0  0
 23 68  1  0  0  0  0
 24 55  1  0  0  0  0
 24 57  2  1  0  0  0
 25 52  2  6  0  0  0
 25 53  1  0  0  0  0
 26 19  1  1  0  0  0
 26 27  1  0  0  0  0
 26 31  1  0  0  0  0
 27 28  2  0  0  0  0
 27 47  1  0  0  0  0
 28 32  1  0  0  0  0
 29 28  1  1  0  0  0
 29 30  1  0  0  0  0
 29 35  1  0  0  0  0
 30 31  2  0  0  0  0
 30107  1  0  0  0  0
 31 48  1  0  0  0  0
 32 36  2  0  0  0  0
 33 32  1  1  0  0  0
 33 34  1  0  0  0  0
 33 39  1  0  0  0  0
 34 35  2  0  0  0  0
 34 42  1  0  0  0  0
 36 37  1  0  0  0  0
 36 43  1  0  0  0  0
 37 38  2  0  0  0  0
 37 46  1  0  0  0  0
 38 39  1  0  0  0  0
 39 40  2  0  0  0  0
 40 41  1  0  0  0  0
 40104  1  0  0  0  0
 41 42  2  0  0  0  0
 41 50  1  0  0  0  0
 42105  1  0  0  0  0
 43 44  2  0  0  0  0
 43 73  1  0  0  0  0
 44 45  1  0  0  0  0
 45 46  2  0  0  0  0
 45 49  1  0  0  0  0
 46106  1  0  0  0  0
 47 51  1  0  0  0  0
 48 58  2  6  0  0  0
 48 59  1  0  0  0  0
 49 64  2  1  0  0  0
 49 65  1  0  0  0  0
 50 61  2  6  0  0  0
 50 62  1  0  0  0  0
 51 22  1  1  0  0  0
 51 70  1  0  0  0  0
 51 73  1  0  0  0  0
 53 54  1  0  0  0  0
 54 82  1  0  0  0  0
 54 83  1  0  0  0  0
 54 84  1  0  0  0  0
 55 56  1  0  0  0  0
 56 79  1  0  0  0  0
 56 80  1  0  0  0  0
 56 81  1  0  0  0  0
 59 60  1  0  0  0  0
 60 76  1  0  0  0  0
 60 77  1  0  0  0  0
 60 78  1  0  0  0  0
 62 63  1  0  0  0  0
 63 98  1  0  0  0  0
 63 99  1  0  0  0  0
 63100  1  0  0  0  0
 65 66  1  0  0  0  0
 66 95  1  0  0  0  0
 66 96  1  0  0  0  0
 66 97  1  0  0  0  0
 68 69  1  0  0  0  0
 69101  1  0  0  0  0
 69102  1  0  0  0  0
 69103  1  0  0  0  0
 70 72  1  0  0  0  0
 71 72  1  0  0  0  0
 71 85  1  0  0  0  0
 71 86  1  0  0  0  0
 71 87  1  0  0  0  0
 72 88  1  0  0  0  0
 72 89  1  0  0  0  0
 73 75  1  0  0  0  0
 74 75  1  0  0  0  0
 74 90  1  0  0  0  0
 74 91  1  0  0  0  0
 74 92  1  0  0  0  0
 75 93  1  0  0  0  0
 75 94  1  0  0  0  0
112113  1  6  0  0  0
112117  1  0  0  0  0
112155  1  0  0  0  0
113114  2  0  0  0  0
113133  1  0  0  0  0
114118  1  0  0  0  0
115114  1  1  0  0  0
115116  1  0  0  0  0
115121  1  0  0  0  0
116117  2  0  0  0  0
116222  1  0  0  0  0
117134  1  0  0  0  0
118119  2  0  0  0  0
119120  1  0  0  0  0
119125  1  0  0  0  0
120121  2  0  0  0  0
120128  1  0  0  0  0
122118  1  6  0  0  0
122123  1  0  0  0  0
122129  1  0  0  0  0
123124  2  0  0  0  0
123132  1  0  0  0  0
124125  1  0  0  0  0
125126  2  0  0  0  0
126127  1  0  0  0  0
126220  1  0  0  0  0
127128  2  0  0  0  0
127136  1  0  0  0  0
128221  1  0  0  0  0
129130  2  0  0  0  0
129181  1  0  0  0  0
130131  1  0  0  0  0
131132  2  0  0  0  0
131135  1  0  0  0  0
132219  1  0  0  0  0
134178  2  6  0  0  0
134179  1  0  0  0  0
135166  1  0  0  0  0
135168  2  1  0  0  0
136163  2  6  0  0  0
136164  1  0  0  0  0
137130  1  1  0  0  0
137138  1  0  0  0  0
137142  1  0  0  0  0
138139  2  0  0  0  0
138158  1  0  0  0  0
139143  1  0  0  0  0
140139  1  1  0  0  0
140141  1  0  0  0  0
140146  1  0  0  0  0
141142  2  0  0  0  0
141218  1  0  0  0  0
142159  1  0  0  0  0
143147  2  0  0  0  0
144143  1  1  0  0  0
144145  1  0  0  0  0
144150  1  0  0  0  0
145146  2  0  0  0  0
145153  1  0  0  0  0
147148  1  0  0  0  0
147154  1  0  0  0  0
148149  2  0  0  0  0
148157  1  0  0  0  0
149150  1  0  0  0  0
150151  2  0  0  0  0
151152  1  0  0  0  0
151215  1  0  0  0  0
152153  2  0  0  0  0
152161  1  0  0  0  0
153216  1  0  0  0  0
154155  2  0  0  0  0
154184  1  0  0  0  0
155156  1  0  0  0  0
156157  2  0  0  0  0
156160  1  0  0  0  0
157217  1  0  0  0  0
158162  1  0  0  0  0
159169  2  6  0  0  0
159170  1  0  0  0  0
160175  2  1  0  0  0
160176  1  0  0  0  0
161172  2  6  0  0  0
161173  1  0  0  0  0
162133  1  1  0  0  0
162181  1  0  0  0  0
162184  1  0  0  0  0
164165  1  0  0  0  0
165193  1  0  0  0  0
165194  1  0  0  0  0
165195  1  0  0  0  0
166167  1  0  0  0  0
167190  1  0  0  0  0
167191  1  0  0  0  0
167192  1  0  0  0  0
170171  1  0  0  0  0
171187  1  0  0  0  0
171188  1  0  0  0  0
171189  1  0  0  0  0
173174  1  0  0  0  0
174209  1  0  0  0  0
174210  1  0  0  0  0
174211  1  0  0  0  0
176177  1  0  0  0  0
177206  1  0  0  0  0
177207  1  0  0  0  0
177208  1  0  0  0  0
179180  1  0  0  0  0
180212  1  0  0  0  0
180213  1  0  0  0  0
180214  1  0  0  0  0
181183  1  0  0  0  0
182183  1  0  0  0  0
182196  1  0  0  0  0
182197  1  0  0  0  0
182198  1  0  0  0  0
183199  1  0  0  0  0
183200  1  0  0  0  0
184186  1  0  0  0  0
185186  1  0  0  0  0
185201  1  0  0  0  0
185202  1  0  0  0  0
185203  1  0  0  0  0
186204  1  0  0  0  0
186205  1  0  0  0  0
M  END
