 xtb: 6.7.1 (edcfbbe)
          02282515203D

111124  0     0  0            999 V2000
   -0.3833    3.2664    0.9451 C   0  0  0  0  0  0  0  0  0  0  0  0
    0.4504    2.1550    1.1922 C   0  0  0  0  0  0  0  0  0  0  0  0
    1.8305    2.0444    1.0486 C   0  0  0  0  0  0  0  0  0  0  0  0
    2.5261    3.2737    0.8445 C   0  0  0  0  0  0  0  0  0  0  0  0
    1.7230    4.4372    0.6158 C   0  0  0  0  0  0  0  0  0  0  0  0
    0.3536    4.4391    0.6626 C   0  0  0  0  0  0  0  0  0  0  0  0
    2.5317    0.7921    1.2813 C   0  0  0  0  0  0  0  0  0  0  0  0
    3.8987    0.9808    1.5562 C   0  0  0  0  0  0  0  0  0  0  0  0
    4.5141    2.2631    1.3362 C   0  0  0  0  0  0  0  0  0  0  0  0
    3.8449    3.3519    0.9355 N   0  0  0  0  0  0  0  0  0  0  0  0
    2.0562   -0.5844    1.3449 C   0  0  0  0  0  0  0  0  0  0  0  0
    2.8828   -1.5442    2.0285 C   0  0  0  0  0  0  0  0  0  0  0  0
    4.1280   -1.2847    2.3871 N   0  0  0  0  0  0  0  0  0  0  0  0
    4.6734   -0.1008    2.0883 C   0  0  0  0  0  0  0  0  0  0  0  0
    6.0403    0.1021    2.3490 C   0  0  0  0  0  0  0  0  0  0  0  0
    6.6216    1.3211    2.0631 C   0  0  0  0  0  0  0  0  0  0  0  0
    5.8982    2.3822    1.5623 C   0  0  0  0  0  0  0  0  0  0  0  0
    0.9495   -1.1733    0.6872 C   0  0  0  0  0  0  0  0  0  0  0  0
    0.3707   -2.4412    1.0065 C   0  0  0  0  0  0  0  0  0  0  0  0
    1.1601   -3.2890    1.7985 C   0  0  0  0  0  0  0  0  0  0  0  0
    2.3716   -2.8610    2.2665 C   0  0  0  0  0  0  0  0  0  0  0  0
   -0.1121    1.0635    1.6599 O   0  0  0  0  0  0  0  0  0  0  0  0
   -0.5314    5.9789    0.2332 S   0  0  0  0  0  0  0  0  0  0  0  0
    0.4762   -4.9340    2.2519 S   0  0  0  0  0  0  0  0  0  0  0  0
    8.4171    1.5386    2.4329 S   0  0  0  0  0  0  0  0  0  0  0  0
   -1.0435   -2.6615    0.6506 C   0  0  0  0  0  0  0  0  0  0  0  0
   -1.9211   -1.5715    0.8191 C   0  0  0  0  0  0  0  0  0  0  0  0
   -3.2486   -1.4635    0.4217 C   0  0  0  0  0  0  0  0  0  0  0  0
   -3.8725   -2.6878    0.0327 C   0  0  0  0  0  0  0  0  0  0  0  0
   -3.0276   -3.8400   -0.0974 C   0  0  0  0  0  0  0  0  0  0  0  0
   -1.6872   -3.8265    0.1875 C   0  0  0  0  0  0  0  0  0  0  0  0
   -3.9948   -0.2256    0.5837 C   0  0  0  0  0  0  0  0  0  0  0  0
   -5.3866   -0.4374    0.5767 C   0  0  0  0  0  0  0  0  0  0  0  0
   -5.9299   -1.7109    0.1826 C   0  0  0  0  0  0  0  0  0  0  0  0
   -5.1821   -2.7749   -0.1417 N   0  0  0  0  0  0  0  0  0  0  0  0
   -3.5535    1.1440    0.8298 C   0  0  0  0  0  0  0  0  0  0  0  0
   -4.5188    2.0523    1.3921 C   0  0  0  0  0  0  0  0  0  0  0  0
   -5.8078    1.7718    1.4709 N   0  0  0  0  0  0  0  0  0  0  0  0
   -6.2678    0.6077    1.0048 C   0  0  0  0  0  0  0  0  0  0  0  0
   -7.6570    0.3858    0.9844 C   0  0  0  0  0  0  0  0  0  0  0  0
   -8.1534   -0.8238    0.5436 C   0  0  0  0  0  0  0  0  0  0  0  0
   -7.3291   -1.8567    0.1505 C   0  0  0  0  0  0  0  0  0  0  0  0
   -2.3377    1.7805    0.4650 C   0  0  0  0  0  0  0  0  0  0  0  0
   -1.8427    3.0140    1.0009 C   0  0  0  0  0  0  0  0  0  0  0  0
   -2.7980    3.7851    1.6797 C   0  0  0  0  0  0  0  0  0  0  0  0
   -4.0810    3.3387    1.8343 C   0  0  0  0  0  0  0  0  0  0  0  0
   -1.4780   -0.5166    1.4614 O   0  0  0  0  0  0  0  0  0  0  0  0
   -0.5462   -5.1862   -0.2694 S   0  0  0  0  0  0  0  0  0  0  0  0
   -2.3017    5.3485    2.4701 S   0  0  0  0  0  0  0  0  0  0  0  0
   -9.9844   -1.0416    0.4682 S   0  0  0  0  0  0  0  0  0  0  0  0
   -0.6950    0.3054    0.6125 B   0  0  0  0  0  0  0  0  0  0  0  0
    8.7079    2.8734    1.9556 O   0  0  0  0  0  0  0  0  0  0  0  0
    8.2300    1.6085    4.0901 O   0  0  0  0  0  0  0  0  0  0  0  0
    7.7055    2.8007    4.6168 C   0  0  0  0  0  0  0  0  0  0  0  0
    1.5148   -5.8274    1.2983 O   0  0  0  0  0  0  0  0  0  0  0  0
    2.6501   -6.3925    1.9116 C   0  0  0  0  0  0  0  0  0  0  0  0
    0.9170   -5.1169    3.6200 O   0  0  0  0  0  0  0  0  0  0  0  0
   -1.3439   -6.3857   -0.1771 O   0  0  0  0  0  0  0  0  0  0  0  0
   -0.5013   -4.7391   -1.8849 O   0  0  0  0  0  0  0  0  0  0  0  0
   -1.5507   -5.1683   -2.7161 C   0  0  0  0  0  0  0  0  0  0  0  0
  -10.1530   -2.4299    0.0980 O   0  0  0  0  0  0  0  0  0  0  0  0
  -10.1953   -0.1143   -0.9081 O   0  0  0  0  0  0  0  0  0  0  0  0
   -9.8421   -0.7112   -2.1287 C   0  0  0  0  0  0  0  0  0  0  0  0
   -3.1010    5.4381    3.6734 O   0  0  0  0  0  0  0  0  0  0  0  0
   -3.0955    6.2402    1.2818 O   0  0  0  0  0  0  0  0  0  0  0  0
   -3.2211    7.6102    1.5908 C   0  0  0  0  0  0  0  0  0  0  0  0
    0.4644    6.8168   -0.4049 O   0  0  0  0  0  0  0  0  0  0  0  0
   -1.3566    5.1402   -0.9554 O   0  0  0  0  0  0  0  0  0  0  0  0
   -2.1759    5.9409   -1.7747 C   0  0  0  0  0  0  0  0  0  0  0  0
    0.3506   -0.4129   -0.2864 N   0  0  0  0  0  0  0  0  0  0  0  0
    1.2119   -0.8547   -2.5171 C   0  0  0  0  0  0  0  0  0  0  0  0
    0.0551   -1.0871   -1.5424 C   0  0  0  0  0  0  0  0  0  0  0  0
   -1.5497    1.0910   -0.4238 N   0  0  0  0  0  0  0  0  0  0  0  0
   -1.9417    1.7005   -2.7450 C   0  0  0  0  0  0  0  0  0  0  0  0
   -1.0116    1.8569   -1.5393 C   0  0  0  0  0  0  0  0  0  0  0  0
   -1.1333   -5.3611   -3.7042 H   0  0  0  0  0  0  0  0  0  0  0  0
   -2.3257   -4.3987   -2.7819 H   0  0  0  0  0  0  0  0  0  0  0  0
   -1.9815   -6.0897   -2.3130 H   0  0  0  0  0  0  0  0  0  0  0  0
    2.6995   -7.4455    1.6342 H   0  0  0  0  0  0  0  0  0  0  0  0
    2.5625   -6.3050    2.9996 H   0  0  0  0  0  0  0  0  0  0  0  0
    3.5495   -5.8742    1.5706 H   0  0  0  0  0  0  0  0  0  0  0  0
    8.1001    2.9161    5.6251 H   0  0  0  0  0  0  0  0  0  0  0  0
    6.6122    2.7610    4.6483 H   0  0  0  0  0  0  0  0  0  0  0  0
    8.0208    3.6504    4.0023 H   0  0  0  0  0  0  0  0  0  0  0  0
    0.9957   -1.3532   -3.4581 H   0  0  0  0  0  0  0  0  0  0  0  0
    2.1297   -1.2689   -2.1057 H   0  0  0  0  0  0  0  0  0  0  0  0
    1.3703    0.2034   -2.7072 H   0  0  0  0  0  0  0  0  0  0  0  0
   -0.0582   -2.1689   -1.4224 H   0  0  0  0  0  0  0  0  0  0  0  0
   -0.8752   -0.6913   -1.9444 H   0  0  0  0  0  0  0  0  0  0  0  0
   -1.5387    2.2598   -3.5854 H   0  0  0  0  0  0  0  0  0  0  0  0
   -2.9271    2.0927   -2.5025 H   0  0  0  0  0  0  0  0  0  0  0  0
   -2.0514    0.6597   -3.0379 H   0  0  0  0  0  0  0  0  0  0  0  0
   -0.9447    2.9239   -1.3159 H   0  0  0  0  0  0  0  0  0  0  0  0
   -0.0130    1.4921   -1.7706 H   0  0  0  0  0  0  0  0  0  0  0  0
   -2.2786    8.1368    1.4118 H   0  0  0  0  0  0  0  0  0  0  0  0
   -3.5207    7.7343    2.6347 H   0  0  0  0  0  0  0  0  0  0  0  0
   -3.9972    8.0161    0.9427 H   0  0  0  0  0  0  0  0  0  0  0  0
  -10.4805   -0.2855   -2.9013 H   0  0  0  0  0  0  0  0  0  0  0  0
  -10.0065   -1.7924   -2.0758 H   0  0  0  0  0  0  0  0  0  0  0  0
   -8.7914   -0.5148   -2.3647 H   0  0  0  0  0  0  0  0  0  0  0  0
   -3.0711    6.2533   -1.2319 H   0  0  0  0  0  0  0  0  0  0  0  0
   -2.4588    5.3305   -2.6319 H   0  0  0  0  0  0  0  0  0  0  0  0
   -1.6247    6.8199   -2.1189 H   0  0  0  0  0  0  0  0  0  0  0  0
   -8.3146    1.1760    1.3089 H   0  0  0  0  0  0  0  0  0  0  0  0
   -7.7548   -2.7995   -0.1579 H   0  0  0  0  0  0  0  0  0  0  0  0
   -4.7991    3.9570    2.3507 H   0  0  0  0  0  0  0  0  0  0  0  0
   -3.4884   -4.7635   -0.4134 H   0  0  0  0  0  0  0  0  0  0  0  0
    2.9751   -3.5149    2.8766 H   0  0  0  0  0  0  0  0  0  0  0  0
    6.6150   -0.7040    2.7761 H   0  0  0  0  0  0  0  0  0  0  0  0
    6.3887    3.3217    1.3575 H   0  0  0  0  0  0  0  0  0  0  0  0
    2.2294    5.3630    0.3852 H   0  0  0  0  0  0  0  0  0  0  0  0
  1  2  4  0  0  0  0
  2  3  4  0  0  0  0
  3  4  1  0  0  0  0
  4  5  1  0  0  0  0
  1  6  4  0  0  0  0
  5  6  2  0  0  0  0
  3  7  1  0  0  0  0
  7  8  4  0  0  0  0
  8  9  1  0  0  0  0
  4 10  4  0  0  0  0
  9 10  4  0  0  0  0
  7 11  1  0  0  0  0
 11 12  1  0  0  0  0
 12 13  4  0  0  0  0
  8 14  1  0  0  0  0
 13 14  4  0  0  0  0
 14 15  4  0  0  0  0
 15 16  4  0  0  0  0
  9 17  4  0  0  0  0
 16 17  4  0  0  0  0
 11 18  4  0  0  0  0
 18 19  4  0  0  0  0
 19 20  4  0  0  0  0
 12 21  1  0  0  0  0
 20 21  2  0  0  0  0
  2 22  1  0  0  0  0
  6 23  1  0  0  0  0
 20 24  1  0  0  0  0
 16 25  1  0  0  0  0
 19 26  1  0  0  0  0
 26 27  4  0  0  0  0
 27 28  4  0  0  0  0
 28 29  1  0  0  0  0
 29 30  1  0  0  0  0
 26 31  4  0  0  0  0
 30 31  2  0  0  0  0
 28 32  1  0  0  0  0
 32 33  4  0  0  0  0
 33 34  1  0  0  0  0
 29 35  4  0  0  0  0
 34 35  4  0  0  0  0
 32 36  4  0  0  0  0
 36 37  1  0  0  0  0
 37 38  4  0  0  0  0
 33 39  1  0  0  0  0
 38 39  4  0  0  0  0
 39 40  4  0  0  0  0
 40 41  4  0  0  0  0
 34 42  4  0  0  0  0
 41 42  4  0  0  0  0
 36 43  4  0  0  0  0
  1 44  1  0  0  0  0
 43 44  4  0  0  0  0
 44 45  4  0  0  0  0
 37 46  1  0  0  0  0
 45 46  2  0  0  0  0
 27 47  1  0  0  0  0
 31 48  1  0  0  0  0
 45 49  1  0  0  0  0
 41 50  1  0  0  0  0
 22 51  1  0  0  0  0
 47 51  1  0  0  0  0
 25 52  2  0  0  0  0
 25 53  1  0  0  0  0
 53 54  1  0  0  0  0
 24 55  1  0  0  0  0
 55 56  1  0  0  0  0
 24 57  2  0  0  0  0
 48 58  2  0  0  0  0
 48 59  1  0  0  0  0
 59 60  1  0  0  0  0
 50 61  2  0  0  0  0
 50 62  1  0  0  0  0
 62 63  1  0  0  0  0
 49 64  2  0  0  0  0
 49 65  1  0  0  0  0
 65 66  1  0  0  0  0
 23 67  2  0  0  0  0
 23 68  1  0  0  0  0
 68 69  1  0  0  0  0
 18 70  1  0  0  0  0
 51 70  1  0  0  0  0
 70 72  1  0  0  0  0
 71 72  1  0  0  0  0
 43 73  1  0  0  0  0
 51 73  1  0  0  0  0
 73 75  1  0  0  0  0
 74 75  1  0  0  0  0
 60 76  1  0  0  0  0
 60 77  1  0  0  0  0
 60 78  1  0  0  0  0
 56 79  1  0  0  0  0
 56 80  1  0  0  0  0
 56 81  1  0  0  0  0
 54 82  1  0  0  0  0
 54 83  1  0  0  0  0
 54 84  1  0  0  0  0
 71 85  1  0  0  0  0
 71 86  1  0  0  0  0
 71 87  1  0  0  0  0
 72 88  1  0  0  0  0
 72 89  1  0  0  0  0
 74 90  1  0  0  0  0
 74 91  1  0  0  0  0
 74 92  1  0  0  0  0
 75 93  1  0  0  0  0
 75 94  1  0  0  0  0
 66 95  1  0  0  0  0
 66 96  1  0  0  0  0
 66 97  1  0  0  0  0
 63 98  1  0  0  0  0
 63 99  1  0  0  0  0
 63100  1  0  0  0  0
 69101  1  0  0  0  0
 69102  1  0  0  0  0
 69103  1  0  0  0  0
 40104  1  0  0  0  0
 42105  1  0  0  0  0
 46106  1  0  0  0  0
 30107  1  0  0  0  0
 21108  1  0  0  0  0
 15109  1  0  0  0  0
 17110  1  0  0  0  0
  5111  1  0  0  0  0
M  CHG  1   1   1
M  END
