 energy: -30.676699094314 gnorm: 0.000185420333 xtb: 6.7.1 (edcfbbe)
          03172512133D

156164  0     0  0            999 V2000
   -1.9183    2.7757    1.3242 C   0  0  0  0  0  0  0  0  0  0  0  0
   -1.9353    1.3852    1.3515 C   0  0  0  0  0  0  0  0  0  0  0  0
   -0.7370    0.6981    1.7377 C   0  0  0  0  0  0  0  0  0  0  0  0
    0.4687    1.4377    1.7569 C   0  0  0  0  0  0  0  0  0  0  0  0
    0.4311    2.8296    1.6814 C   0  0  0  0  0  0  0  0  0  0  0  0
   -0.7570    3.5185    1.5323 C   0  0  0  0  0  0  0  0  0  0  0  0
   -0.6996   -0.7224    2.0198 C   0  0  0  0  0  0  0  0  0  0  0  0
    0.5334   -1.4121    1.8328 C   0  0  0  0  0  0  0  0  0  0  0  0
    1.7555   -0.6974    1.7467 C   0  0  0  0  0  0  0  0  0  0  0  0
    1.7583    0.7576    1.8416 C   0  0  0  0  0  0  0  0  0  0  0  0
   -1.8373   -1.4828    2.4934 C   0  0  0  0  0  0  0  0  0  0  0  0
   -1.8626   -2.8856    2.3067 C   0  0  0  0  0  0  0  0  0  0  0  0
   -0.6577   -3.6046    1.8975 C   0  0  0  0  0  0  0  0  0  0  0  0
    0.5708   -2.8287    1.7621 C   0  0  0  0  0  0  0  0  0  0  0  0
    1.7900   -3.4726    1.6061 C   0  0  0  0  0  0  0  0  0  0  0  0
    2.9926   -2.7788    1.5448 C   0  0  0  0  0  0  0  0  0  0  0  0
    2.9499   -1.3915    1.6206 C   0  0  0  0  0  0  0  0  0  0  0  0
   -2.9002   -0.8919    3.2534 C   0  0  0  0  0  0  0  0  0  0  0  0
   -4.0514   -1.6436    3.4728 C   0  0  0  0  0  0  0  0  0  0  0  0
   -4.1437   -2.9925    3.1299 C   0  0  0  0  0  0  0  0  0  0  0  0
   -3.0228   -3.6024    2.5992 C   0  0  0  0  0  0  0  0  0  0  0  0
   -2.6978    0.3716    3.8350 O   0  0  0  0  0  0  0  0  0  0  0  0
   -3.0486    0.6323    0.9554 O   0  0  0  0  0  0  0  0  0  0  0  0
    2.8062    1.3888    1.9807 O   0  0  0  0  0  0  0  0  0  0  0  0
   -0.6625   -4.8257    1.7438 O   0  0  0  0  0  0  0  0  0  0  0  0
   -3.8760    1.0200    4.2655 C   0  0  0  0  0  0  0  0  0  0  0  0
   -4.1514    1.3822    0.4967 C   0  0  0  0  0  0  0  0  0  0  0  0
   -5.4478   -3.7597    3.4065 C   0  0  0  0  0  0  0  0  0  0  0  0
   -5.3633   -5.2237    2.9293 C   0  0  0  0  0  0  0  0  0  0  0  0
   -5.7376   -3.7584    4.9189 C   0  0  0  0  0  0  0  0  0  0  0  0
   -6.6077   -3.0744    2.6586 C   0  0  0  0  0  0  0  0  0  0  0  0
   -0.8265    5.0545    1.5408 C   0  0  0  0  0  0  0  0  0  0  0  0
   -1.8845    5.5162    2.5637 C   0  0  0  0  0  0  0  0  0  0  0  0
    0.5247    5.6836    1.9369 C   0  0  0  0  0  0  0  0  0  0  0  0
   -1.2120    5.5550    0.1367 C   0  0  0  0  0  0  0  0  0  0  0  0
    4.3135   -3.5564    1.4278 C   0  0  0  0  0  0  0  0  0  0  0  0
    5.5314   -2.6126    1.3725 C   0  0  0  0  0  0  0  0  0  0  0  0
    4.2984   -4.4035    0.1413 C   0  0  0  0  0  0  0  0  0  0  0  0
    4.4690   -4.4768    2.6533 C   0  0  0  0  0  0  0  0  0  0  0  0
    5.4095   -5.0302    2.6121 H   0  0  0  0  0  0  0  0  0  0  0  0
    3.6573   -5.2037    2.7099 H   0  0  0  0  0  0  0  0  0  0  0  0
    4.4602   -3.8945    3.5768 H   0  0  0  0  0  0  0  0  0  0  0  0
    6.4604   -3.1805    1.2863 H   0  0  0  0  0  0  0  0  0  0  0  0
    5.6007   -2.0058    2.2773 H   0  0  0  0  0  0  0  0  0  0  0  0
    5.4732   -1.9446    0.5111 H   0  0  0  0  0  0  0  0  0  0  0  0
    5.2339   -4.9545    0.0230 H   0  0  0  0  0  0  0  0  0  0  0  0
    4.1679   -3.7689   -0.7374 H   0  0  0  0  0  0  0  0  0  0  0  0
    3.4844   -5.1298    0.1530 H   0  0  0  0  0  0  0  0  0  0  0  0
   -7.5472   -3.6088    2.8158 H   0  0  0  0  0  0  0  0  0  0  0  0
   -6.4112   -3.0466    1.5852 H   0  0  0  0  0  0  0  0  0  0  0  0
   -6.7488   -2.0474    2.9989 H   0  0  0  0  0  0  0  0  0  0  0  0
   -6.6482   -4.3176    5.1447 H   0  0  0  0  0  0  0  0  0  0  0  0
   -5.8678   -2.7442    5.2999 H   0  0  0  0  0  0  0  0  0  0  0  0
   -4.9162   -4.2202    5.4679 H   0  0  0  0  0  0  0  0  0  0  0  0
   -6.3065   -5.7456    3.1051 H   0  0  0  0  0  0  0  0  0  0  0  0
   -4.5840   -5.7699    3.4635 H   0  0  0  0  0  0  0  0  0  0  0  0
   -5.1512   -5.2765    1.8599 H   0  0  0  0  0  0  0  0  0  0  0  0
   -3.6461    2.0606    4.4941 H   0  0  0  0  0  0  0  0  0  0  0  0
   -4.2699    0.5450    5.1638 H   0  0  0  0  0  0  0  0  0  0  0  0
   -4.6231    0.9959    3.4731 H   0  0  0  0  0  0  0  0  0  0  0  0
   -4.9428    0.6961    0.1954 H   0  0  0  0  0  0  0  0  0  0  0  0
   -3.8655    1.9846   -0.3657 H   0  0  0  0  0  0  0  0  0  0  0  0
   -4.5327    2.0212    1.2926 H   0  0  0  0  0  0  0  0  0  0  0  0
   -1.2594    6.6458    0.1074 H   0  0  0  0  0  0  0  0  0  0  0  0
   -2.1874    5.1704   -0.1665 H   0  0  0  0  0  0  0  0  0  0  0  0
   -0.4796    5.2292   -0.6045 H   0  0  0  0  0  0  0  0  0  0  0  0
    0.8509    5.3286    2.9168 H   0  0  0  0  0  0  0  0  0  0  0  0
    0.4471    6.7719    1.9885 H   0  0  0  0  0  0  0  0  0  0  0  0
    1.3011    5.4467    1.2073 H   0  0  0  0  0  0  0  0  0  0  0  0
   -1.9366    6.6062    2.6087 H   0  0  0  0  0  0  0  0  0  0  0  0
   -1.6427    5.1506    3.5636 H   0  0  0  0  0  0  0  0  0  0  0  0
   -2.8789    5.1494    2.3053 H   0  0  0  0  0  0  0  0  0  0  0  0
    1.7900   -4.5469    1.5584 H   0  0  0  0  0  0  0  0  0  0  0  0
    3.8568   -0.8163    1.5814 H   0  0  0  0  0  0  0  0  0  0  0  0
    1.3642    3.3592    1.7427 H   0  0  0  0  0  0  0  0  0  0  0  0
   -2.8274    3.3049    1.1105 H   0  0  0  0  0  0  0  0  0  0  0  0
   -4.8822   -1.1885    3.9784 H   0  0  0  0  0  0  0  0  0  0  0  0
   -3.0165   -4.6594    2.4044 H   0  0  0  0  0  0  0  0  0  0  0  0
    0.8511   -0.3316    6.0051 C   0  0  0  0  0  0  0  0  0  0  0  0
    0.8168   -1.5059    6.7625 C   0  0  0  0  0  0  0  0  0  0  0  0
    0.8424   -1.3850    8.1938 C   0  0  0  0  0  0  0  0  0  0  0  0
    1.2606   -0.1545    8.7532 C   0  0  0  0  0  0  0  0  0  0  0  0
    1.3121    0.9727    7.9491 C   0  0  0  0  0  0  0  0  0  0  0  0
    1.0327    0.9119    6.5860 C   0  0  0  0  0  0  0  0  0  0  0  0
    0.5271   -2.4881    9.0627 C   0  0  0  0  0  0  0  0  0  0  0  0
    1.1163   -2.5165   10.3658 C   0  0  0  0  0  0  0  0  0  0  0  0
    1.6962   -1.3509   10.9136 C   0  0  0  0  0  0  0  0  0  0  0  0
    1.6639   -0.0901   10.1626 C   0  0  0  0  0  0  0  0  0  0  0  0
   -0.3694   -3.5493    8.6929 C   0  0  0  0  0  0  0  0  0  0  0  0
   -0.2988   -4.7929    9.3627 C   0  0  0  0  0  0  0  0  0  0  0  0
    0.5039   -4.9260   10.5839 C   0  0  0  0  0  0  0  0  0  0  0  0
    1.1220   -3.7091   11.1217 C   0  0  0  0  0  0  0  0  0  0  0  0
    1.7228   -3.7169   12.3684 C   0  0  0  0  0  0  0  0  0  0  0  0
    2.3056   -2.5804   12.9139 C   0  0  0  0  0  0  0  0  0  0  0  0
    2.2700   -1.4056   12.1724 C   0  0  0  0  0  0  0  0  0  0  0  0
   -1.4079   -3.3597    7.7214 C   0  0  0  0  0  0  0  0  0  0  0  0
   -2.0931   -4.4863    7.2605 C   0  0  0  0  0  0  0  0  0  0  0  0
   -1.8900   -5.7452    7.7961 C   0  0  0  0  0  0  0  0  0  0  0  0
   -1.0319   -5.8679    8.8853 C   0  0  0  0  0  0  0  0  0  0  0  0
   -1.7229   -2.0673    7.3379 O   0  0  0  0  0  0  0  0  0  0  0  0
    0.8069   -2.7772    6.2174 O   0  0  0  0  0  0  0  0  0  0  0  0
    1.9942    0.9659   10.6820 O   0  0  0  0  0  0  0  0  0  0  0  0
    0.6172   -6.0005   11.1560 O   0  0  0  0  0  0  0  0  0  0  0  0
   -2.5659   -1.9594    6.2180 C   0  0  0  0  0  0  0  0  0  0  0  0
    0.8039   -2.8248    4.8135 C   0  0  0  0  0  0  0  0  0  0  0  0
   -2.6653   -6.9354    7.2148 C   0  0  0  0  0  0  0  0  0  0  0  0
   -2.1675   -8.2726    7.7947 C   0  0  0  0  0  0  0  0  0  0  0  0
   -4.1588   -6.7764    7.5473 C   0  0  0  0  0  0  0  0  0  0  0  0
   -2.4738   -6.9706    5.6850 C   0  0  0  0  0  0  0  0  0  0  0  0
    0.9609    2.1645    5.7036 C   0  0  0  0  0  0  0  0  0  0  0  0
   -0.3535    2.1395    4.8956 C   0  0  0  0  0  0  0  0  0  0  0  0
    0.9772    3.4561    6.5424 C   0  0  0  0  0  0  0  0  0  0  0  0
    2.1717    2.1795    4.7571 C   0  0  0  0  0  0  0  0  0  0  0  0
    2.9559   -2.6568   14.3032 C   0  0  0  0  0  0  0  0  0  0  0  0
    3.5793   -1.3097   14.7158 C   0  0  0  0  0  0  0  0  0  0  0  0
    4.0685   -3.7211   14.2867 C   0  0  0  0  0  0  0  0  0  0  0  0
    1.8874   -3.0397   15.3428 C   0  0  0  0  0  0  0  0  0  0  0  0
    2.3160   -3.0888   16.3437 H   0  0  0  0  0  0  0  0  0  0  0  0
    1.4494   -4.0115   15.1192 H   0  0  0  0  0  0  0  0  0  0  0  0
    1.0827   -2.3051   15.3553 H   0  0  0  0  0  0  0  0  0  0  0  0
    4.0458   -1.3838   15.6982 H   0  0  0  0  0  0  0  0  0  0  0  0
    2.8231   -0.5271   14.7687 H   0  0  0  0  0  0  0  0  0  0  0  0
    4.3479   -1.0010   14.0078 H   0  0  0  0  0  0  0  0  0  0  0  0
    4.5641   -3.7833   15.2554 H   0  0  0  0  0  0  0  0  0  0  0  0
    4.8212   -3.4786   13.5370 H   0  0  0  0  0  0  0  0  0  0  0  0
    3.6701   -4.7074   14.0532 H   0  0  0  0  0  0  0  0  0  0  0  0
   -2.9861   -7.8263    5.2468 H   0  0  0  0  0  0  0  0  0  0  0  0
   -1.4170   -7.0419    5.4307 H   0  0  0  0  0  0  0  0  0  0  0  0
   -2.8674   -6.0737    5.2103 H   0  0  0  0  0  0  0  0  0  0  0  0
   -4.7396   -7.6053    7.1436 H   0  0  0  0  0  0  0  0  0  0  0  0
   -4.5583   -5.8537    7.1302 H   0  0  0  0  0  0  0  0  0  0  0  0
   -4.3125   -6.7481    8.6257 H   0  0  0  0  0  0  0  0  0  0  0  0
   -2.6847   -9.1120    7.3302 H   0  0  0  0  0  0  0  0  0  0  0  0
   -2.3495   -8.3294    8.8673 H   0  0  0  0  0  0  0  0  0  0  0  0
   -1.0999   -8.3996    7.6182 H   0  0  0  0  0  0  0  0  0  0  0  0
   -2.5470   -0.9223    5.8799 H   0  0  0  0  0  0  0  0  0  0  0  0
   -3.5852   -2.2332    6.4906 H   0  0  0  0  0  0  0  0  0  0  0  0
   -2.1981   -2.5945    5.4113 H   0  0  0  0  0  0  0  0  0  0  0  0
    0.7664   -3.8698    4.5016 H   0  0  0  0  0  0  0  0  0  0  0  0
    1.7148   -2.3681    4.4234 H   0  0  0  0  0  0  0  0  0  0  0  0
   -0.0783   -2.3125    4.4293 H   0  0  0  0  0  0  0  0  0  0  0  0
    2.1378    3.0364    4.0862 H   0  0  0  0  0  0  0  0  0  0  0  0
    2.2053    1.2834    4.1405 H   0  0  0  0  0  0  0  0  0  0  0  0
    3.1029    2.2259    5.3199 H   0  0  0  0  0  0  0  0  0  0  0  0
    0.1606    3.4623    7.2636 H   0  0  0  0  0  0  0  0  0  0  0  0
    0.8643    4.3312    5.9030 H   0  0  0  0  0  0  0  0  0  0  0  0
    1.9167    3.5642    7.0828 H   0  0  0  0  0  0  0  0  0  0  0  0
   -0.4427    3.0224    4.2651 H   0  0  0  0  0  0  0  0  0  0  0  0
   -1.2149    2.1128    5.5612 H   0  0  0  0  0  0  0  0  0  0  0  0
   -0.4206    1.2675    4.2476 H   0  0  0  0  0  0  0  0  0  0  0  0
    1.7244   -4.6393   12.9191 H   0  0  0  0  0  0  0  0  0  0  0  0
    2.6959   -0.5000   12.5617 H   0  0  0  0  0  0  0  0  0  0  0  0
    1.5737    1.9048    8.4138 H   0  0  0  0  0  0  0  0  0  0  0  0
    0.7383   -0.3947    4.9397 H   0  0  0  0  0  0  0  0  0  0  0  0
   -2.8251   -4.3650    6.4868 H   0  0  0  0  0  0  0  0  0  0  0  0
   -0.9218   -6.8086    9.3912 H   0  0  0  0  0  0  0  0  0  0  0  0
  1  2  2  0  0  0  0
  1 76  1  0  0  0  0
  2  3  1  0  0  0  0
  2 23  1  0  0  0  0
  3  4  2  0  0  0  0
  3  7  1  0  0  0  0
  4  5  1  0  0  0  0
  5  6  2  0  0  0  0
  5 75  1  0  0  0  0
  6 32  1  0  0  0  0
  6  1  1  0  0  0  0
  7  8  1  0  0  0  0
  8  9  2  0  0  0  0
  9 10  1  0  0  0  0
 10  4  1  0  0  0  0
 10 24  2  0  0  0  0
 11 12  2  0  0  0  0
 11 18  1  0  0  0  0
 11  7  1  0  0  0  0
 12 13  1  0  0  0  0
 13 14  1  0  0  0  0
 13 25  2  0  0  0  0
 14  8  1  0  0  0  0
 14 15  2  0  0  0  0
 15 16  1  0  0  0  0
 15 73  1  0  0  0  0
 16 36  1  0  0  0  0
 16 17  2  0  0  0  0
 17  9  1  0  0  0  0
 17 74  1  0  0  0  0
 18 19  2  0  0  0  0
 19 20  1  0  0  0  0
 19 77  1  0  0  0  0
 20 28  1  0  0  0  0
 20 21  2  0  0  0  0
 21 12  1  0  0  0  0
 21 78  1  0  0  0  0
 22 26  1  0  0  0  0
 22 18  1  0  0  0  0
 23 27  1  0  0  0  0
 26 58  1  0  0  0  0
 26 59  1  0  0  0  0
 26 60  1  0  0  0  0
 27 61  1  0  0  0  0
 27 62  1  0  0  0  0
 27 63  1  0  0  0  0
 28 29  1  0  0  0  0
 28 30  1  0  0  0  0
 28 31  1  0  0  0  0
 29 55  1  0  0  0  0
 29 56  1  0  0  0  0
 29 57  1  0  0  0  0
 30 52  1  0  0  0  0
 30 53  1  0  0  0  0
 30 54  1  0  0  0  0
 31 49  1  0  0  0  0
 31 50  1  0  0  0  0
 31 51  1  0  0  0  0
 32 33  1  0  0  0  0
 32 34  1  0  0  0  0
 32 35  1  0  0  0  0
 33 70  1  0  0  0  0
 33 71  1  0  0  0  0
 33 72  1  0  0  0  0
 34 67  1  0  0  0  0
 34 68  1  0  0  0  0
 34 69  1  0  0  0  0
 35 64  1  0  0  0  0
 35 65  1  0  0  0  0
 35 66  1  0  0  0  0
 36 37  1  0  0  0  0
 36 38  1  0  0  0  0
 36 39  1  0  0  0  0
 37 43  1  0  0  0  0
 37 44  1  0  0  0  0
 37 45  1  0  0  0  0
 38 46  1  0  0  0  0
 38 47  1  0  0  0  0
 38 48  1  0  0  0  0
 39 40  1  0  0  0  0
 39 41  1  0  0  0  0
 39 42  1  0  0  0  0
 79 80  2  0  0  0  0
 79154  1  0  0  0  0
 80 81  1  0  0  0  0
 80101  1  0  0  0  0
 81 82  2  0  0  0  0
 81 85  1  0  0  0  0
 82 83  1  0  0  0  0
 83 84  2  0  0  0  0
 83153  1  0  0  0  0
 84110  1  0  0  0  0
 84 79  1  0  0  0  0
 85 86  1  0  0  0  0
 86 87  2  0  0  0  0
 87 88  1  0  0  0  0
 88 82  1  0  0  0  0
 88102  2  0  0  0  0
 89 90  2  0  0  0  0
 89 96  1  0  0  0  0
 89 85  1  0  0  0  0
 90 91  1  0  0  0  0
 91 92  1  0  0  0  0
 91103  2  0  0  0  0
 92 86  1  0  0  0  0
 92 93  2  0  0  0  0
 93 94  1  0  0  0  0
 93151  1  0  0  0  0
 94114  1  0  0  0  0
 94 95  2  0  0  0  0
 95 87  1  0  0  0  0
 95152  1  0  0  0  0
 96 97  2  0  0  0  0
 97 98  1  0  0  0  0
 97155  1  0  0  0  0
 98106  1  0  0  0  0
 98 99  2  0  0  0  0
 99 90  1  0  0  0  0
 99156  1  0  0  0  0
100104  1  0  0  0  0
100 96  1  0  0  0  0
101105  1  0  0  0  0
104136  1  0  0  0  0
104137  1  0  0  0  0
104138  1  0  0  0  0
105139  1  0  0  0  0
105140  1  0  0  0  0
105141  1  0  0  0  0
106107  1  0  0  0  0
106108  1  0  0  0  0
106109  1  0  0  0  0
107133  1  0  0  0  0
107134  1  0  0  0  0
107135  1  0  0  0  0
108130  1  0  0  0  0
108131  1  0  0  0  0
108132  1  0  0  0  0
109127  1  0  0  0  0
109128  1  0  0  0  0
109129  1  0  0  0  0
110111  1  0  0  0  0
110112  1  0  0  0  0
110113  1  0  0  0  0
111148  1  0  0  0  0
111149  1  0  0  0  0
111150  1  0  0  0  0
112145  1  0  0  0  0
112146  1  0  0  0  0
112147  1  0  0  0  0
113142  1  0  0  0  0
113143  1  0  0  0  0
113144  1  0  0  0  0
114115  1  0  0  0  0
114116  1  0  0  0  0
114117  1  0  0  0  0
115121  1  0  0  0  0
115122  1  0  0  0  0
115123  1  0  0  0  0
116124  1  0  0  0  0
116125  1  0  0  0  0
116126  1  0  0  0  0
117118  1  0  0  0  0
117119  1  0  0  0  0
117120  1  0  0  0  0
M  CHG  1   7  -1
M  CHG  1  85  -1
M  END
