 energy: -27.601425057843 gnorm: 0.000556457214 xtb: 6.7.1 (edcfbbe)
          03042511143D

152160  0     0  0            999 V2000
   -3.0664    2.3984   -3.2796 C   0  0  0  0  0  0  0  0  0  0  0  0
   -2.8960    1.1544   -2.6761 C   0  0  0  0  0  0  0  0  0  0  0  0
   -1.8532    1.0111   -1.7005 C   0  0  0  0  0  0  0  0  0  0  0  0
   -0.8288    1.9969   -1.6620 C   0  0  0  0  0  0  0  0  0  0  0  0
   -1.0292    3.2015   -2.3619 C   0  0  0  0  0  0  0  0  0  0  0  0
   -2.1617    3.4418   -3.1094 C   0  0  0  0  0  0  0  0  0  0  0  0
   -1.7453   -0.0872   -0.7898 C   0  0  0  0  0  0  0  0  0  0  0  0
   -0.4831   -0.3175   -0.2308 C   0  0  0  0  0  0  0  0  0  0  0  0
    0.5221    0.6802   -0.3217 C   0  0  0  0  0  0  0  0  0  0  0  0
    0.3277    1.8467   -0.9715 N   0  0  0  0  0  0  0  0  0  0  0  0
   -2.7931   -0.9603   -0.3520 C   0  0  0  0  0  0  0  0  0  0  0  0
   -2.4184   -2.2213    0.1833 C   0  0  0  0  0  0  0  0  0  0  0  0
   -1.1424   -2.5326    0.5193 N   0  0  0  0  0  0  0  0  0  0  0  0
   -0.2269   -1.5414    0.4427 C   0  0  0  0  0  0  0  0  0  0  0  0
    1.0305   -1.7158    1.0358 C   0  0  0  0  0  0  0  0  0  0  0  0
    1.9971   -0.7229    1.0307 C   0  0  0  0  0  0  0  0  0  0  0  0
    1.7383    0.4497    0.3366 C   0  0  0  0  0  0  0  0  0  0  0  0
   -4.1720   -0.5768   -0.3171 C   0  0  0  0  0  0  0  0  0  0  0  0
   -5.1207   -1.5516   -0.0200 C   0  0  0  0  0  0  0  0  0  0  0  0
   -4.7686   -2.8516    0.3373 C   0  0  0  0  0  0  0  0  0  0  0  0
   -3.4312   -3.1562    0.4603 C   0  0  0  0  0  0  0  0  0  0  0  0
   -4.4907    0.7667   -0.4912 O   0  0  0  0  0  0  0  0  0  0  0  0
   -3.7254    0.1120   -3.1242 O   0  0  0  0  0  0  0  0  0  0  0  0
   -2.4245    4.7907   -3.7936 C   0  0  0  0  0  0  0  0  0  0  0  0
   -5.8186   -3.9135    0.6943 C   0  0  0  0  0  0  0  0  0  0  0  0
    3.3396   -0.9522    1.7398 C   0  0  0  0  0  0  0  0  0  0  0  0
   -7.2484   -3.4301    0.3845 C   0  0  0  0  0  0  0  0  0  0  0  0
   -5.5558   -5.1915   -0.1245 C   0  0  0  0  0  0  0  0  0  0  0  0
   -5.7195   -4.2284    2.1977 C   0  0  0  0  0  0  0  0  0  0  0  0
    4.2663   -1.7494    0.8088 C   0  0  0  0  0  0  0  0  0  0  0  0
    4.0086    0.3897    2.0963 C   0  0  0  0  0  0  0  0  0  0  0  0
    3.1261   -1.7399    3.0491 C   0  0  0  0  0  0  0  0  0  0  0  0
   -3.8016    5.3214   -3.3532 C   0  0  0  0  0  0  0  0  0  0  0  0
   -2.4041    4.5989   -5.3200 C   0  0  0  0  0  0  0  0  0  0  0  0
   -1.3609    5.8395   -3.4154 C   0  0  0  0  0  0  0  0  0  0  0  0
   -0.2632    3.9491   -2.2799 H   0  0  0  0  0  0  0  0  0  0  0  0
   -3.8996    2.5159   -3.9467 H   0  0  0  0  0  0  0  0  0  0  0  0
    2.4776    1.2258    0.2855 H   0  0  0  0  0  0  0  0  0  0  0  0
    1.2205   -2.6531    1.5232 H   0  0  0  0  0  0  0  0  0  0  0  0
   -3.1318   -4.1237    0.8182 H   0  0  0  0  0  0  0  0  0  0  0  0
   -6.1568   -1.2783   -0.0290 H   0  0  0  0  0  0  0  0  0  0  0  0
   -5.8579    1.0338   -0.6920 C   0  0  0  0  0  0  0  0  0  0  0  0
   -3.0665   -1.1253   -3.3287 C   0  0  0  0  0  0  0  0  0  0  0  0
   -1.3285    5.9928   -2.3372 H   0  0  0  0  0  0  0  0  0  0  0  0
   -1.5838    6.8001   -3.8791 H   0  0  0  0  0  0  0  0  0  0  0  0
   -0.3704    5.5354   -3.7518 H   0  0  0  0  0  0  0  0  0  0  0  0
   -3.1771    3.9022   -5.6409 H   0  0  0  0  0  0  0  0  0  0  0  0
   -1.4420    4.2040   -5.6448 H   0  0  0  0  0  0  0  0  0  0  0  0
   -2.5722    5.5448   -5.8341 H   0  0  0  0  0  0  0  0  0  0  0  0
   -4.6003    4.6378   -3.6373 H   0  0  0  0  0  0  0  0  0  0  0  0
   -4.0119    6.2876   -3.8111 H   0  0  0  0  0  0  0  0  0  0  0  0
   -3.8376    5.4460   -2.2714 H   0  0  0  0  0  0  0  0  0  0  0  0
    4.4401   -1.2070   -0.1200 H   0  0  0  0  0  0  0  0  0  0  0  0
    3.8252   -2.7128    0.5550 H   0  0  0  0  0  0  0  0  0  0  0  0
    5.2312   -1.9326    1.2808 H   0  0  0  0  0  0  0  0  0  0  0  0
    2.8051   -2.7622    2.8571 H   0  0  0  0  0  0  0  0  0  0  0  0
    2.3692   -1.2595    3.6662 H   0  0  0  0  0  0  0  0  0  0  0  0
    4.0475   -1.7935    3.6276 H   0  0  0  0  0  0  0  0  0  0  0  0
    4.3165    0.9320    1.2036 H   0  0  0  0  0  0  0  0  0  0  0  0
    4.9010    0.2289    2.6997 H   0  0  0  0  0  0  0  0  0  0  0  0
    3.3261    1.0214    2.6638 H   0  0  0  0  0  0  0  0  0  0  0  0
   -5.8842   -3.3291    2.7904 H   0  0  0  0  0  0  0  0  0  0  0  0
   -4.7360   -4.6197    2.4544 H   0  0  0  0  0  0  0  0  0  0  0  0
   -6.4623   -4.9694    2.4917 H   0  0  0  0  0  0  0  0  0  0  0  0
   -5.5816   -4.9757   -1.1921 H   0  0  0  0  0  0  0  0  0  0  0  0
   -6.3095   -5.9501    0.0844 H   0  0  0  0  0  0  0  0  0  0  0  0
   -4.5822   -5.6205    0.1073 H   0  0  0  0  0  0  0  0  0  0  0  0
   -7.3493   -3.1565   -0.6654 H   0  0  0  0  0  0  0  0  0  0  0  0
   -7.5145   -2.5680    0.9951 H   0  0  0  0  0  0  0  0  0  0  0  0
   -7.9752   -4.2146    0.5939 H   0  0  0  0  0  0  0  0  0  0  0  0
   -3.3884   -1.8401   -2.5717 H   0  0  0  0  0  0  0  0  0  0  0  0
   -1.9845   -0.9975   -3.2810 H   0  0  0  0  0  0  0  0  0  0  0  0
   -3.3365   -1.5083   -4.3132 H   0  0  0  0  0  0  0  0  0  0  0  0
   -5.9710    2.0862   -0.9538 H   0  0  0  0  0  0  0  0  0  0  0  0
   -6.4176    0.8346    0.2224 H   0  0  0  0  0  0  0  0  0  0  0  0
   -6.2319    0.4245   -1.5159 H   0  0  0  0  0  0  0  0  0  0  0  0
   -2.2356    1.3212    2.4955 C   0  0  0  0  0  0  0  0  0  0  0  0
   -1.7797    0.3100    3.3386 C   0  0  0  0  0  0  0  0  0  0  0  0
   -0.6213    0.5752    4.1471 C   0  0  0  0  0  0  0  0  0  0  0  0
    0.2234    1.6587    3.7737 C   0  0  0  0  0  0  0  0  0  0  0  0
   -0.2925    2.6307    2.8977 C   0  0  0  0  0  0  0  0  0  0  0  0
   -1.5335    2.5113    2.3085 C   0  0  0  0  0  0  0  0  0  0  0  0
   -0.2238   -0.1946    5.2887 C   0  0  0  0  0  0  0  0  0  0  0  0
    1.1275   -0.1277    5.6485 C   0  0  0  0  0  0  0  0  0  0  0  0
    1.9598    0.8762    5.0850 C   0  0  0  0  0  0  0  0  0  0  0  0
    1.4930    1.8052    4.2241 N   0  0  0  0  0  0  0  0  0  0  0  0
   -1.0624   -0.9971    6.1251 C   0  0  0  0  0  0  0  0  0  0  0  0
   -0.4384   -1.9726    6.9471 C   0  0  0  0  0  0  0  0  0  0  0  0
    0.9014   -2.0312    7.1424 N   0  0  0  0  0  0  0  0  0  0  0  0
    1.6547   -1.0603    6.5817 C   0  0  0  0  0  0  0  0  0  0  0  0
    3.0167   -0.9737    6.9041 C   0  0  0  0  0  0  0  0  0  0  0  0
    3.8442    0.0057    6.3758 C   0  0  0  0  0  0  0  0  0  0  0  0
    3.3025    0.9202    5.4866 C   0  0  0  0  0  0  0  0  0  0  0  0
   -2.4780   -0.8064    6.2300 C   0  0  0  0  0  0  0  0  0  0  0  0
   -3.2246   -1.7623    6.9132 C   0  0  0  0  0  0  0  0  0  0  0  0
   -2.6320   -2.8297    7.5845 C   0  0  0  0  0  0  0  0  0  0  0  0
   -1.2562   -2.8933    7.6258 C   0  0  0  0  0  0  0  0  0  0  0  0
   -3.0353    0.3617    5.7153 O   0  0  0  0  0  0  0  0  0  0  0  0
   -2.4720   -0.9093    3.2931 O   0  0  0  0  0  0  0  0  0  0  0  0
   -2.1479    3.7020    1.5566 C   0  0  0  0  0  0  0  0  0  0  0  0
   -3.4631   -3.8815    8.3340 C   0  0  0  0  0  0  0  0  0  0  0  0
    5.3238    0.1256    6.7718 C   0  0  0  0  0  0  0  0  0  0  0  0
   -4.9717   -3.7128    8.0681 C   0  0  0  0  0  0  0  0  0  0  0  0
   -3.0484   -5.2892    7.8663 C   0  0  0  0  0  0  0  0  0  0  0  0
   -3.2113   -3.7404    9.8452 C   0  0  0  0  0  0  0  0  0  0  0  0
    6.2028    0.0639    5.5093 C   0  0  0  0  0  0  0  0  0  0  0  0
    5.5447    1.4687    7.4907 C   0  0  0  0  0  0  0  0  0  0  0  0
    5.7558   -1.0116    7.7173 C   0  0  0  0  0  0  0  0  0  0  0  0
   -2.7563    4.6663    2.5889 C   0  0  0  0  0  0  0  0  0  0  0  0
   -3.2587    3.2464    0.5930 C   0  0  0  0  0  0  0  0  0  0  0  0
   -1.0667    4.4437    0.7471 C   0  0  0  0  0  0  0  0  0  0  0  0
    0.3089    3.5028    2.7229 H   0  0  0  0  0  0  0  0  0  0  0  0
   -3.1306    1.1253    1.9355 H   0  0  0  0  0  0  0  0  0  0  0  0
    3.9186    1.7017    5.0828 H   0  0  0  0  0  0  0  0  0  0  0  0
    3.4005   -1.6935    7.6014 H   0  0  0  0  0  0  0  0  0  0  0  0
   -0.7707   -3.6557    8.2060 H   0  0  0  0  0  0  0  0  0  0  0  0
   -4.2891   -1.6462    6.9549 H   0  0  0  0  0  0  0  0  0  0  0  0
   -4.4299    0.3254    5.5258 C   0  0  0  0  0  0  0  0  0  0  0  0
   -1.6678   -2.0637    3.4451 C   0  0  0  0  0  0  0  0  0  0  0  0
   -0.3712    4.9717    1.3977 H   0  0  0  0  0  0  0  0  0  0  0  0
   -1.5145    5.1824    0.0833 H   0  0  0  0  0  0  0  0  0  0  0  0
   -0.4932    3.7439    0.1431 H   0  0  0  0  0  0  0  0  0  0  0  0
   -4.1101    2.8368    1.1345 H   0  0  0  0  0  0  0  0  0  0  0  0
   -2.8957    2.4803   -0.0876 H   0  0  0  0  0  0  0  0  0  0  0  0
   -3.6236    4.0803   -0.0056 H   0  0  0  0  0  0  0  0  0  0  0  0
   -3.5313    4.1684    3.1710 H   0  0  0  0  0  0  0  0  0  0  0  0
   -3.2015    5.5326    2.1004 H   0  0  0  0  0  0  0  0  0  0  0  0
   -1.9955    5.0217    3.2830 H   0  0  0  0  0  0  0  0  0  0  0  0
    5.9857    0.8898    4.8337 H   0  0  0  0  0  0  0  0  0  0  0  0
    6.0368   -0.8673    4.9688 H   0  0  0  0  0  0  0  0  0  0  0  0
    7.2598    0.1183    5.7685 H   0  0  0  0  0  0  0  0  0  0  0  0
    5.6126   -1.9853    7.2496 H   0  0  0  0  0  0  0  0  0  0  0  0
    5.1887   -0.9863    8.6472 H   0  0  0  0  0  0  0  0  0  0  0  0
    6.8109   -0.9206    7.9743 H   0  0  0  0  0  0  0  0  0  0  0  0
    5.2993    2.3085    6.8421 H   0  0  0  0  0  0  0  0  0  0  0  0
    6.5830    1.5791    7.8020 H   0  0  0  0  0  0  0  0  0  0  0  0
    4.9165    1.5375    8.3782 H   0  0  0  0  0  0  0  0  0  0  0  0
   -3.4853   -2.7434   10.1891 H   0  0  0  0  0  0  0  0  0  0  0  0
   -2.1611   -3.8993   10.0862 H   0  0  0  0  0  0  0  0  0  0  0  0
   -3.7980   -4.4656   10.4083 H   0  0  0  0  0  0  0  0  0  0  0  0
   -3.1905   -5.3941    6.7911 H   0  0  0  0  0  0  0  0  0  0  0  0
   -3.6441   -6.0554    8.3618 H   0  0  0  0  0  0  0  0  0  0  0  0
   -2.0012   -5.4901    8.0870 H   0  0  0  0  0  0  0  0  0  0  0  0
   -5.1892   -3.7687    7.0017 H   0  0  0  0  0  0  0  0  0  0  0  0
   -5.3349   -2.7579    8.4466 H   0  0  0  0  0  0  0  0  0  0  0  0
   -5.5415   -4.4981    8.5641 H   0  0  0  0  0  0  0  0  0  0  0  0
   -1.9577   -2.7936    2.6907 H   0  0  0  0  0  0  0  0  0  0  0  0
   -1.8290   -2.5011    4.4293 H   0  0  0  0  0  0  0  0  0  0  0  0
   -0.6143   -1.8175    3.3117 H   0  0  0  0  0  0  0  0  0  0  0  0
   -4.7238    1.2104    4.9605 H   0  0  0  0  0  0  0  0  0  0  0  0
   -4.9412    0.3344    6.4887 H   0  0  0  0  0  0  0  0  0  0  0  0
   -4.6971   -0.5633    4.9522 H   0  0  0  0  0  0  0  0  0  0  0  0
  1  2  2  0  0  0  0
  1 37  1  0  0  0  0
  2  3  1  0  0  0  0
  2 23  1  0  0  0  0
  3  4  2  0  0  0  0
  3  7  1  0  0  0  0
  4  5  1  0  0  0  0
  5  6  2  0  0  0  0
  5 36  1  0  0  0  0
  6  1  1  0  0  0  0
  6 24  1  0  0  0  0
  7 11  2  0  0  0  0
  8  7  1  0  0  0  0
  8  9  1  0  0  0  0
  9 10  2  0  0  0  0
 10  4  1  0  0  0  0
 11 12  1  0  0  0  0
 11 18  1  0  0  0  0
 12 13  2  0  0  0  0
 13 14  1  0  0  0  0
 14  8  1  0  0  0  0
 14 15  2  0  0  0  0
 15 16  1  0  0  0  0
 15 39  1  0  0  0  0
 16 17  2  0  0  0  0
 16 26  1  0  0  0  0
 17  9  1  0  0  0  0
 17 38  1  0  0  0  0
 18 19  2  0  0  0  0
 19 20  1  0  0  0  0
 19 41  1  0  0  0  0
 20 21  2  0  0  0  0
 20 25  1  0  0  0  0
 21 12  1  0  0  0  0
 21 40  1  0  0  0  0
 22 42  1  0  0  0  0
 22 18  1  0  0  0  0
 23 43  1  0  0  0  0
 24 33  1  0  0  0  0
 24 34  1  0  0  0  0
 24 35  1  0  0  0  0
 25 27  1  0  0  0  0
 25 28  1  0  0  0  0
 25 29  1  0  0  0  0
 26 30  1  0  0  0  0
 26 31  1  0  0  0  0
 26 32  1  0  0  0  0
 27 68  1  0  0  0  0
 27 69  1  0  0  0  0
 27 70  1  0  0  0  0
 28 65  1  0  0  0  0
 28 66  1  0  0  0  0
 28 67  1  0  0  0  0
 29 62  1  0  0  0  0
 29 63  1  0  0  0  0
 29 64  1  0  0  0  0
 30 53  1  0  0  0  0
 30 54  1  0  0  0  0
 30 55  1  0  0  0  0
 31 59  1  0  0  0  0
 31 60  1  0  0  0  0
 31 61  1  0  0  0  0
 32 56  1  0  0  0  0
 32 57  1  0  0  0  0
 32 58  1  0  0  0  0
 33 50  1  0  0  0  0
 33 51  1  0  0  0  0
 33 52  1  0  0  0  0
 34 47  1  0  0  0  0
 34 48  1  0  0  0  0
 34 49  1  0  0  0  0
 35 44  1  0  0  0  0
 35 45  1  0  0  0  0
 35 46  1  0  0  0  0
 42 74  1  0  0  0  0
 42 75  1  0  0  0  0
 42 76  1  0  0  0  0
 43 71  1  0  0  0  0
 43 72  1  0  0  0  0
 43 73  1  0  0  0  0
 77 78  2  0  0  0  0
 77113  1  0  0  0  0
 78 79  1  0  0  0  0
 78 99  1  0  0  0  0
 79 80  2  0  0  0  0
 79 83  1  0  0  0  0
 80 81  1  0  0  0  0
 81 82  2  0  0  0  0
 81112  1  0  0  0  0
 82 77  1  0  0  0  0
 82100  1  0  0  0  0
 83 87  2  0  0  0  0
 84 83  1  0  0  0  0
 84 85  1  0  0  0  0
 85 86  2  0  0  0  0
 86 80  1  0  0  0  0
 87 88  1  0  0  0  0
 87 94  1  0  0  0  0
 88 89  2  0  0  0  0
 89 90  1  0  0  0  0
 90 84  1  0  0  0  0
 90 91  2  0  0  0  0
 91 92  1  0  0  0  0
 91115  1  0  0  0  0
 92 93  2  0  0  0  0
 92102  1  0  0  0  0
 93 85  1  0  0  0  0
 93114  1  0  0  0  0
 94 95  2  0  0  0  0
 95 96  1  0  0  0  0
 95117  1  0  0  0  0
 96 97  2  0  0  0  0
 96101  1  0  0  0  0
 97 88  1  0  0  0  0
 97116  1  0  0  0  0
 98118  1  0  0  0  0
 98 94  1  0  0  0  0
 99119  1  0  0  0  0
100109  1  0  0  0  0
100110  1  0  0  0  0
100111  1  0  0  0  0
101103  1  0  0  0  0
101104  1  0  0  0  0
101105  1  0  0  0  0
102106  1  0  0  0  0
102107  1  0  0  0  0
102108  1  0  0  0  0
103144  1  0  0  0  0
103145  1  0  0  0  0
103146  1  0  0  0  0
104141  1  0  0  0  0
104142  1  0  0  0  0
104143  1  0  0  0  0
105138  1  0  0  0  0
105139  1  0  0  0  0
105140  1  0  0  0  0
106129  1  0  0  0  0
106130  1  0  0  0  0
106131  1  0  0  0  0
107135  1  0  0  0  0
107136  1  0  0  0  0
107137  1  0  0  0  0
108132  1  0  0  0  0
108133  1  0  0  0  0
108134  1  0  0  0  0
109126  1  0  0  0  0
109127  1  0  0  0  0
109128  1  0  0  0  0
110123  1  0  0  0  0
110124  1  0  0  0  0
110125  1  0  0  0  0
111120  1  0  0  0  0
111121  1  0  0  0  0
111122  1  0  0  0  0
118150  1  0  0  0  0
118151  1  0  0  0  0
118152  1  0  0  0  0
119147  1  0  0  0  0
119148  1  0  0  0  0
119149  1  0  0  0  0
M  END
