 energy: -209.273659237147 gnorm: 0.000088919732 xtb: 6.7.1 (edcfbbe)
          03112514533D

141152  0     0  0            999 V2000
   -1.2915   -2.6408   -1.0024 C   0  0  0  0  0  0  0  0  0  0  0  0
   -1.7716   -1.4604   -0.4265 C   0  0  0  0  0  0  0  0  0  0  0  0
   -2.8617   -0.7776   -1.0620 C   0  0  0  0  0  0  0  0  0  0  0  0
   -3.3343   -1.3623   -2.2712 C   0  0  0  0  0  0  0  0  0  0  0  0
   -2.7518   -2.4834   -2.8399 C   0  0  0  0  0  0  0  0  0  0  0  0
   -1.7220   -3.1601   -2.2104 C   0  0  0  0  0  0  0  0  0  0  0  0
   -3.5840    0.3584   -0.5564 C   0  0  0  0  0  0  0  0  0  0  0  0
   -4.9005    0.6172   -1.0501 C   0  0  0  0  0  0  0  0  0  0  0  0
   -5.3532    0.0698   -2.2657 C   0  0  0  0  0  0  0  0  0  0  0  0
   -4.4884   -0.8392   -3.0136 C   0  0  0  0  0  0  0  0  0  0  0  0
   -3.1387    1.1923    0.5083 C   0  0  0  0  0  0  0  0  0  0  0  0
   -4.0677    1.8742    1.3336 C   0  0  0  0  0  0  0  0  0  0  0  0
   -5.4677    2.0208    0.9419 C   0  0  0  0  0  0  0  0  0  0  0  0
   -5.8096    1.4509   -0.3636 C   0  0  0  0  0  0  0  0  0  0  0  0
   -7.0761    1.7084   -0.8779 C   0  0  0  0  0  0  0  0  0  0  0  0
   -7.5041    1.1900   -2.0910 C   0  0  0  0  0  0  0  0  0  0  0  0
   -6.6097    0.3703   -2.7701 C   0  0  0  0  0  0  0  0  0  0  0  0
   -1.7694    1.3221    0.8413 C   0  0  0  0  0  0  0  0  0  0  0  0
   -1.4460    1.6948    2.1481 C   0  0  0  0  0  0  0  0  0  0  0  0
   -2.3789    2.2286    3.0250 C   0  0  0  0  0  0  0  0  0  0  0  0
   -3.6732    2.4068    2.5515 C   0  0  0  0  0  0  0  0  0  0  0  0
   -1.1271   -1.0591    0.7061 O   0  0  0  0  0  0  0  0  0  0  0  0
   -0.8314    1.0652   -0.0974 O   0  0  0  0  0  0  0  0  0  0  0  0
   -0.0058   -0.0731    0.3023 B   0  0  0  0  0  0  0  0  0  0  0  0
    1.3671   -2.5860    0.8663 C   0  0  0  0  0  0  0  0  0  0  0  0
    1.7410   -1.5460    0.0176 C   0  0  0  0  0  0  0  0  0  0  0  0
    3.1224   -1.2792   -0.1267 C   0  0  0  0  0  0  0  0  0  0  0  0
    4.0201   -2.3265    0.1876 C   0  0  0  0  0  0  0  0  0  0  0  0
    3.5848   -3.4399    0.8968 C   0  0  0  0  0  0  0  0  0  0  0  0
    2.2760   -3.5239    1.3480 C   0  0  0  0  0  0  0  0  0  0  0  0
    3.5985    0.0115   -0.4910 C   0  0  0  0  0  0  0  0  0  0  0  0
    4.9266    0.0616   -1.0144 C   0  0  0  0  0  0  0  0  0  0  0  0
    5.8045   -1.0413   -0.9347 C   0  0  0  0  0  0  0  0  0  0  0  0
    2.9012    1.2401   -0.2273 C   0  0  0  0  0  0  0  0  0  0  0  0
    3.4372    2.4246   -0.8086 C   0  0  0  0  0  0  0  0  0  0  0  0
    4.5937    2.4145   -1.7157 C   0  0  0  0  0  0  0  0  0  0  0  0
    5.4180    1.2096   -1.6639 C   0  0  0  0  0  0  0  0  0  0  0  0
    6.6787    1.2256   -2.2422 C   0  0  0  0  0  0  0  0  0  0  0  0
    7.5377    0.1344   -2.1746 C   0  0  0  0  0  0  0  0  0  0  0  0
    7.0759   -0.9837   -1.4953 C   0  0  0  0  0  0  0  0  0  0  0  0
    1.7943    1.4320    0.6685 C   0  0  0  0  0  0  0  0  0  0  0  0
    1.3999    2.7393    0.9674 C   0  0  0  0  0  0  0  0  0  0  0  0
    1.9148    3.8778    0.3742 C   0  0  0  0  0  0  0  0  0  0  0  0
    2.9296    3.6872   -0.5471 C   0  0  0  0  0  0  0  0  0  0  0  0
    1.0680    0.4551    1.2806 O   0  0  0  0  0  0  0  0  0  0  0  0
    0.8580   -0.7668   -0.6481 O   0  0  0  0  0  0  0  0  0  0  0  0
    5.4271   -2.2522   -0.1984 C   0  0  0  0  0  0  0  0  0  0  0  0
    4.8980    3.3834   -2.4074 O   0  0  0  0  0  0  0  0  0  0  0  0
    6.2338   -3.1473    0.0495 O   0  0  0  0  0  0  0  0  0  0  0  0
   -4.7571   -1.1995   -4.1575 O   0  0  0  0  0  0  0  0  0  0  0  0
   -6.2958    2.6025    1.6417 O   0  0  0  0  0  0  0  0  0  0  0  0
   -1.0929   -4.3727   -2.8729 C   0  0  0  0  0  0  0  0  0  0  0  0
   -0.0134   -5.0278   -2.0092 C   0  0  0  0  0  0  0  0  0  0  0  0
   -0.4505   -3.9112   -4.1885 C   0  0  0  0  0  0  0  0  0  0  0  0
   -2.1799   -5.4177   -3.1618 C   0  0  0  0  0  0  0  0  0  0  0  0
   -2.0371    2.6305    4.4503 C   0  0  0  0  0  0  0  0  0  0  0  0
   -2.3004    4.1327    4.6282 C   0  0  0  0  0  0  0  0  0  0  0  0
   -2.9344    1.8322    5.4072 C   0  0  0  0  0  0  0  0  0  0  0  0
   -0.5775    2.3465    4.8131 C   0  0  0  0  0  0  0  0  0  0  0  0
   -8.8774    1.4629   -2.6803 C   0  0  0  0  0  0  0  0  0  0  0  0
   -8.7077    2.1282   -4.0531 C   0  0  0  0  0  0  0  0  0  0  0  0
   -9.7200    2.3857   -1.7961 C   0  0  0  0  0  0  0  0  0  0  0  0
   -9.6226    0.1301   -2.8388 C   0  0  0  0  0  0  0  0  0  0  0  0
    1.8062   -4.5716    2.3442 C   0  0  0  0  0  0  0  0  0  0  0  0
    0.6629   -5.3989    1.7427 C   0  0  0  0  0  0  0  0  0  0  0  0
    1.3090   -3.8427    3.6008 C   0  0  0  0  0  0  0  0  0  0  0  0
    2.9281   -5.5310    2.7510 C   0  0  0  0  0  0  0  0  0  0  0  0
    1.3907    5.2742    0.6582 C   0  0  0  0  0  0  0  0  0  0  0  0
    2.5512    6.1636    1.1266 C   0  0  0  0  0  0  0  0  0  0  0  0
    0.7963    5.8352   -0.6410 C   0  0  0  0  0  0  0  0  0  0  0  0
    0.3030    5.2926    1.7351 C   0  0  0  0  0  0  0  0  0  0  0  0
    8.9145    0.2156   -2.8118 C   0  0  0  0  0  0  0  0  0  0  0  0
    9.6994    1.3594   -2.1542 C   0  0  0  0  0  0  0  0  0  0  0  0
    9.7141   -1.0788   -2.6435 C   0  0  0  0  0  0  0  0  0  0  0  0
    8.7528    0.4937   -4.3127 C   0  0  0  0  0  0  0  0  0  0  0  0
   -2.7153    2.0978    6.4403 H   0  0  0  0  0  0  0  0  0  0  0  0
   -2.7599    0.7662    5.2784 H   0  0  0  0  0  0  0  0  0  0  0  0
   -3.9853    2.0304    5.2163 H   0  0  0  0  0  0  0  0  0  0  0  0
   -0.4019    2.6169    5.8535 H   0  0  0  0  0  0  0  0  0  0  0  0
    0.1021    2.9291    4.1962 H   0  0  0  0  0  0  0  0  0  0  0  0
   -0.3434    1.2919    4.6925 H   0  0  0  0  0  0  0  0  0  0  0  0
   -2.0535    4.4390    5.6435 H   0  0  0  0  0  0  0  0  0  0  0  0
   -3.3434    4.3729    4.4429 H   0  0  0  0  0  0  0  0  0  0  0  0
   -1.6896    4.7069    3.9353 H   0  0  0  0  0  0  0  0  0  0  0  0
   -0.0331    6.3163    1.8952 H   0  0  0  0  0  0  0  0  0  0  0  0
    0.6876    4.9126    2.6794 H   0  0  0  0  0  0  0  0  0  0  0  0
   -0.5564    4.6984    1.4330 H   0  0  0  0  0  0  0  0  0  0  0  0
    2.1928    7.1703    1.3352 H   0  0  0  0  0  0  0  0  0  0  0  0
    3.3278    6.2270    0.3699 H   0  0  0  0  0  0  0  0  0  0  0  0
    2.9927    5.7581    2.0350 H   0  0  0  0  0  0  0  0  0  0  0  0
    0.4023    6.8367   -0.4755 H   0  0  0  0  0  0  0  0  0  0  0  0
   -0.0130    5.1948   -0.9847 H   0  0  0  0  0  0  0  0  0  0  0  0
    1.5474    5.8846   -1.4243 H   0  0  0  0  0  0  0  0  0  0  0  0
   10.6944    1.4332   -2.5900 H   0  0  0  0  0  0  0  0  0  0  0  0
    9.8019    1.1778   -1.0861 H   0  0  0  0  0  0  0  0  0  0  0  0
    9.1941    2.3114   -2.2905 H   0  0  0  0  0  0  0  0  0  0  0  0
   10.6857   -0.9726   -3.1237 H   0  0  0  0  0  0  0  0  0  0  0  0
    9.1983   -1.9175   -3.1049 H   0  0  0  0  0  0  0  0  0  0  0  0
    9.8794   -1.3013   -1.5921 H   0  0  0  0  0  0  0  0  0  0  0  0
    9.7285    0.5546   -4.7920 H   0  0  0  0  0  0  0  0  0  0  0  0
    8.2275    1.4288   -4.4848 H   0  0  0  0  0  0  0  0  0  0  0  0
    8.1854   -0.3069   -4.7829 H   0  0  0  0  0  0  0  0  0  0  0  0
    0.0201   -4.7523   -4.6952 H   0  0  0  0  0  0  0  0  0  0  0  0
    0.3076   -3.1582   -3.9854 H   0  0  0  0  0  0  0  0  0  0  0  0
   -1.1918   -3.4774   -4.8541 H   0  0  0  0  0  0  0  0  0  0  0  0
   -1.7402   -6.2954   -3.6326 H   0  0  0  0  0  0  0  0  0  0  0  0
   -2.9426   -5.0208   -3.8253 H   0  0  0  0  0  0  0  0  0  0  0  0
   -2.6602   -5.7262   -2.2353 H   0  0  0  0  0  0  0  0  0  0  0  0
    0.4063   -5.8829   -2.5372 H   0  0  0  0  0  0  0  0  0  0  0  0
   -0.4349   -5.3820   -1.0718 H   0  0  0  0  0  0  0  0  0  0  0  0
    0.7957   -4.3332   -1.7969 H   0  0  0  0  0  0  0  0  0  0  0  0
    0.3390   -6.1605    2.4505 H   0  0  0  0  0  0  0  0  0  0  0  0
    0.9979   -5.8933    0.8332 H   0  0  0  0  0  0  0  0  0  0  0  0
   -0.1925   -4.7730    1.5051 H   0  0  0  0  0  0  0  0  0  0  0  0
    2.5510   -6.2441    3.4826 H   0  0  0  0  0  0  0  0  0  0  0  0
    3.7577   -4.9911    3.2005 H   0  0  0  0  0  0  0  0  0  0  0  0
    3.2939   -6.0888    1.8922 H   0  0  0  0  0  0  0  0  0  0  0  0
    0.9553   -4.5610    4.3390 H   0  0  0  0  0  0  0  0  0  0  0  0
    0.4958   -3.1632    3.3621 H   0  0  0  0  0  0  0  0  0  0  0  0
    2.1172   -3.2618    4.0401 H   0  0  0  0  0  0  0  0  0  0  0  0
   -9.6811    2.3349   -4.4947 H   0  0  0  0  0  0  0  0  0  0  0  0
   -8.1514    1.4895   -4.7332 H   0  0  0  0  0  0  0  0  0  0  0  0
   -8.1678    3.0673   -3.9500 H   0  0  0  0  0  0  0  0  0  0  0  0
  -10.6147    0.2997   -3.2539 H   0  0  0  0  0  0  0  0  0  0  0  0
   -9.7307   -0.3561   -1.8712 H   0  0  0  0  0  0  0  0  0  0  0  0
   -9.0850   -0.5439   -3.4999 H   0  0  0  0  0  0  0  0  0  0  0  0
  -10.6892    2.5538   -2.2632 H   0  0  0  0  0  0  0  0  0  0  0  0
   -9.2348    3.3502   -1.6666 H   0  0  0  0  0  0  0  0  0  0  0  0
   -9.8885    1.9414   -0.8181 H   0  0  0  0  0  0  0  0  0  0  0  0
   -7.7097    2.3370   -0.2717 H   0  0  0  0  0  0  0  0  0  0  0  0
   -6.8635   -0.0774   -3.7200 H   0  0  0  0  0  0  0  0  0  0  0  0
   -3.1552   -2.8072   -3.7877 H   0  0  0  0  0  0  0  0  0  0  0  0
   -0.4927   -3.1348   -0.4832 H   0  0  0  0  0  0  0  0  0  0  0  0
   -4.4349    2.9021    3.1345 H   0  0  0  0  0  0  0  0  0  0  0  0
   -0.4390    1.5053    2.4703 H   0  0  0  0  0  0  0  0  0  0  0  0
    0.6002    2.8441    1.6743 H   0  0  0  0  0  0  0  0  0  0  0  0
    3.3830    4.5100   -1.0793 H   0  0  0  0  0  0  0  0  0  0  0  0
    6.9657    2.1401   -2.7407 H   0  0  0  0  0  0  0  0  0  0  0  0
    7.6863   -1.8642   -1.3670 H   0  0  0  0  0  0  0  0  0  0  0  0
    4.3282   -4.1867    1.1243 H   0  0  0  0  0  0  0  0  0  0  0  0
    0.3413   -2.6158    1.1917 H   0  0  0  0  0  0  0  0  0  0  0  0
  1  2  2  0  0  0  0
  1133  1  0  0  0  0
  2  3  1  0  0  0  0
  2 22  1  0  0  0  0
  3  4  2  0  0  0  0
  3  7  1  0  0  0  0
  4  5  1  0  0  0  0
  5  6  2  0  0  0  0
  5132  1  0  0  0  0
  6 52  1  0  0  0  0
  6  1  1  0  0  0  0
  7  8  1  0  0  0  0
  7 11  1  0  0  0  0
  8  9  2  0  0  0  0
  9 10  1  0  0  0  0
 10  4  1  0  0  0  0
 10 50  2  0  0  0  0
 11 12  2  0  0  0  0
 11 18  1  0  0  0  0
 13 14  1  0  0  0  0
 13 12  1  0  0  0  0
 13 51  2  0  0  0  0
 14  8  1  0  0  0  0
 14 15  2  0  0  0  0
 15 16  1  0  0  0  0
 15130  1  0  0  0  0
 16 60  1  0  0  0  0
 16 17  2  0  0  0  0
 17  9  1  0  0  0  0
 17131  1  0  0  0  0
 18 19  2  0  0  0  0
 18 23  1  0  0  0  0
 19 20  1  0  0  0  0
 19135  1  0  0  0  0
 20 56  1  0  0  0  0
 20 21  2  0  0  0  0
 21 12  1  0  0  0  0
 21134  1  0  0  0  0
 24 23  1  0  0  0  0
 24 22  1  0  0  0  0
 25 26  2  0  0  0  0
 25141  1  0  0  0  0
 26 27  1  0  0  0  0
 26 46  1  0  0  0  0
 27 28  2  0  0  0  0
 27 31  1  0  0  0  0
 28 29  1  0  0  0  0
 28 47  1  0  0  0  0
 29 30  2  0  0  0  0
 29140  1  0  0  0  0
 30 64  1  0  0  0  0
 30 25  1  0  0  0  0
 31 32  1  0  0  0  0
 32 33  2  0  0  0  0
 34 35  2  0  0  0  0
 34 41  1  0  0  0  0
 34 31  1  0  0  0  0
 36 37  1  0  0  0  0
 36 35  1  0  0  0  0
 36 48  2  0  0  0  0
 37 32  1  0  0  0  0
 37 38  2  0  0  0  0
 38 39  1  0  0  0  0
 38138  1  0  0  0  0
 39 72  1  0  0  0  0
 39 40  2  0  0  0  0
 40 33  1  0  0  0  0
 40139  1  0  0  0  0
 41 42  2  0  0  0  0
 41 45  1  0  0  0  0
 42 43  1  0  0  0  0
 42136  1  0  0  0  0
 43 68  1  0  0  0  0
 43 44  2  0  0  0  0
 44 35  1  0  0  0  0
 44137  1  0  0  0  0
 45 24  1  0  0  0  0
 46 24  1  0  0  0  0
 47 33  1  0  0  0  0
 47 49  2  0  0  0  0
 52 53  1  0  0  0  0
 52 54  1  0  0  0  0
 52 55  1  0  0  0  0
 53109  1  0  0  0  0
 53110  1  0  0  0  0
 53111  1  0  0  0  0
 54103  1  0  0  0  0
 54104  1  0  0  0  0
 54105  1  0  0  0  0
 55106  1  0  0  0  0
 55107  1  0  0  0  0
 55108  1  0  0  0  0
 56 57  1  0  0  0  0
 56 58  1  0  0  0  0
 56 59  1  0  0  0  0
 57 82  1  0  0  0  0
 57 83  1  0  0  0  0
 57 84  1  0  0  0  0
 58 76  1  0  0  0  0
 58 77  1  0  0  0  0
 58 78  1  0  0  0  0
 59 79  1  0  0  0  0
 59 80  1  0  0  0  0
 59 81  1  0  0  0  0
 60 61  1  0  0  0  0
 60 62  1  0  0  0  0
 60 63  1  0  0  0  0
 61121  1  0  0  0  0
 61122  1  0  0  0  0
 61123  1  0  0  0  0
 62127  1  0  0  0  0
 62128  1  0  0  0  0
 62129  1  0  0  0  0
 63124  1  0  0  0  0
 63125  1  0  0  0  0
 63126  1  0  0  0  0
 64 65  1  0  0  0  0
 64 66  1  0  0  0  0
 64 67  1  0  0  0  0
 65112  1  0  0  0  0
 65113  1  0  0  0  0
 65114  1  0  0  0  0
 66118  1  0  0  0  0
 66119  1  0  0  0  0
 66120  1  0  0  0  0
 67115  1  0  0  0  0
 67116  1  0  0  0  0
 67117  1  0  0  0  0
 68 69  1  0  0  0  0
 68 70  1  0  0  0  0
 68 71  1  0  0  0  0
 69 88  1  0  0  0  0
 69 89  1  0  0  0  0
 69 90  1  0  0  0  0
 70 91  1  0  0  0  0
 70 92  1  0  0  0  0
 70 93  1  0  0  0  0
 71 85  1  0  0  0  0
 71 86  1  0  0  0  0
 71 87  1  0  0  0  0
 72 73  1  0  0  0  0
 72 74  1  0  0  0  0
 72 75  1  0  0  0  0
 73 94  1  0  0  0  0
 73 95  1  0  0  0  0
 73 96  1  0  0  0  0
 74 97  1  0  0  0  0
 74 98  1  0  0  0  0
 74 99  1  0  0  0  0
 75100  1  0  0  0  0
 75101  1  0  0  0  0
 75102  1  0  0  0  0
M  CHG  1   1  -1
M  END
