 energy: -418.849952154651 gnorm: 0.000679555494 xtb: 6.7.1 (edcfbbe)
          03112515253D

282304  0     0  0            999 V2000
   -1.4260   -0.6905   -7.1264 C   0  0  0  0  0  0  0  0  0  0  0  0
   -1.9406    0.3076   -6.3017 C   0  0  0  0  0  0  0  0  0  0  0  0
   -3.0780    1.0588   -6.7593 C   0  0  0  0  0  0  0  0  0  0  0  0
   -3.5259    0.7548   -8.0769 C   0  0  0  0  0  0  0  0  0  0  0  0
   -2.9054   -0.1969   -8.8825 C   0  0  0  0  0  0  0  0  0  0  0  0
   -1.8612   -0.9626   -8.4150 C   0  0  0  0  0  0  0  0  0  0  0  0
   -3.8826    1.9712   -5.9889 C   0  0  0  0  0  0  0  0  0  0  0  0
   -5.1895    2.2879   -6.4339 C   0  0  0  0  0  0  0  0  0  0  0  0
   -5.5969    2.0610   -7.7682 C   0  0  0  0  0  0  0  0  0  0  0  0
   -4.6978    1.3813   -8.6874 C   0  0  0  0  0  0  0  0  0  0  0  0
   -3.5258    2.4713   -4.6998 C   0  0  0  0  0  0  0  0  0  0  0  0
   -4.5149    2.7951   -3.7427 C   0  0  0  0  0  0  0  0  0  0  0  0
   -5.8946    3.0189   -4.1417 C   0  0  0  0  0  0  0  0  0  0  0  0
   -6.1580    2.8645   -5.5729 C   0  0  0  0  0  0  0  0  0  0  0  0
   -7.4126    3.2226   -6.0484 C   0  0  0  0  0  0  0  0  0  0  0  0
   -7.7839    3.0517   -7.3746 C   0  0  0  0  0  0  0  0  0  0  0  0
   -6.8502    2.4564   -8.2132 C   0  0  0  0  0  0  0  0  0  0  0  0
   -2.1763    2.5998   -4.2975 C   0  0  0  0  0  0  0  0  0  0  0  0
   -1.9000    2.5383   -2.9366 C   0  0  0  0  0  0  0  0  0  0  0  0
   -2.8954    2.6309   -1.9615 C   0  0  0  0  0  0  0  0  0  0  0  0
   -4.1833    2.8889   -2.3900 C   0  0  0  0  0  0  0  0  0  0  0  0
   -1.2934    0.4490   -5.1063 O   0  0  0  0  0  0  0  0  0  0  0  0
   -1.2228    2.7447   -5.2523 O   0  0  0  0  0  0  0  0  0  0  0  0
   -0.2901    1.6195   -5.2012 B   0  0  0  0  0  0  0  0  0  0  0  0
    1.3567   -0.7915   -5.4623 C   0  0  0  0  0  0  0  0  0  0  0  0
    1.5978    0.4961   -5.9362 C   0  0  0  0  0  0  0  0  0  0  0  0
    2.9402    0.9394   -5.9871 C   0  0  0  0  0  0  0  0  0  0  0  0
    3.9421   -0.0588   -6.0509 C   0  0  0  0  0  0  0  0  0  0  0  0
    3.6327   -1.3867   -5.7635 C   0  0  0  0  0  0  0  0  0  0  0  0
    2.3631   -1.7464   -5.3479 C   0  0  0  0  0  0  0  0  0  0  0  0
    3.2810    2.3234   -5.9155 C   0  0  0  0  0  0  0  0  0  0  0  0
    4.5780    2.6671   -6.3724 C   0  0  0  0  0  0  0  0  0  0  0  0
    5.5617    1.6872   -6.6634 C   0  0  0  0  0  0  0  0  0  0  0  0
    2.4655    3.3345   -5.2890 C   0  0  0  0  0  0  0  0  0  0  0  0
    2.8697    4.6889   -5.4611 C   0  0  0  0  0  0  0  0  0  0  0  0
    4.0280    5.0821   -6.2616 C   0  0  0  0  0  0  0  0  0  0  0  0
    4.9606    4.0117   -6.5820 C   0  0  0  0  0  0  0  0  0  0  0  0
    6.2133    4.3363   -7.0789 C   0  0  0  0  0  0  0  0  0  0  0  0
    7.1734    3.3728   -7.3641 C   0  0  0  0  0  0  0  0  0  0  0  0
    6.8175    2.0526   -7.1344 C   0  0  0  0  0  0  0  0  0  0  0  0
    1.3509    3.1289   -4.4065 C   0  0  0  0  0  0  0  0  0  0  0  0
    0.7920    4.2324   -3.7626 C   0  0  0  0  0  0  0  0  0  0  0  0
    1.1744    5.5497   -3.9696 C   0  0  0  0  0  0  0  0  0  0  0  0
    2.2133    5.7535   -4.8505 C   0  0  0  0  0  0  0  0  0  0  0  0
    0.7573    1.9320   -4.1112 O   0  0  0  0  0  0  0  0  0  0  0  0
    0.6088    1.3362   -6.3251 O   0  0  0  0  0  0  0  0  0  0  0  0
    5.3125    0.2711   -6.4057 C   0  0  0  0  0  0  0  0  0  0  0  0
    4.2522    6.2577   -6.5827 O   0  0  0  0  0  0  0  0  0  0  0  0
    6.2053   -0.5833   -6.5100 O   0  0  0  0  0  0  0  0  0  0  0  0
   -4.9603    1.2718   -9.8946 O   0  0  0  0  0  0  0  0  0  0  0  0
   -6.7859    3.3419   -3.3448 O   0  0  0  0  0  0  0  0  0  0  0  0
   -1.2133   -2.0126   -9.3044 C   0  0  0  0  0  0  0  0  0  0  0  0
   -0.1065   -2.7944   -8.5925 C   0  0  0  0  0  0  0  0  0  0  0  0
   -0.5980   -1.3021  -10.5173 C   0  0  0  0  0  0  0  0  0  0  0  0
   -2.2824   -3.0103   -9.7733 C   0  0  0  0  0  0  0  0  0  0  0  0
   -2.5290    2.4241   -0.4993 C   0  0  0  0  0  0  0  0  0  0  0  0
   -1.4632    3.4368   -0.0632 C   0  0  0  0  0  0  0  0  0  0  0  0
   -3.7371    2.5728    0.4302 C   0  0  0  0  0  0  0  0  0  0  0  0
   -1.9745    1.0005   -0.3476 C   0  0  0  0  0  0  0  0  0  0  0  0
   -9.1445    3.4572   -7.9221 C   0  0  0  0  0  0  0  0  0  0  0  0
   -8.9451    4.4634   -9.0643 C   0  0  0  0  0  0  0  0  0  0  0  0
  -10.0341    4.1077   -6.8591 C   0  0  0  0  0  0  0  0  0  0  0  0
   -9.8632    2.2093   -8.4544 C   0  0  0  0  0  0  0  0  0  0  0  0
    2.1123   -3.1450   -4.8020 C   0  0  0  0  0  0  0  0  0  0  0  0
    0.6565   -3.3683   -4.3855 C   0  0  0  0  0  0  0  0  0  0  0  0
    2.9998   -3.3459   -3.5650 C   0  0  0  0  0  0  0  0  0  0  0  0
    2.4769   -4.1870   -5.8695 C   0  0  0  0  0  0  0  0  0  0  0  0
    0.4834    6.7350   -3.3140 C   0  0  0  0  0  0  0  0  0  0  0  0
    1.5237    7.5798   -2.5638 C   0  0  0  0  0  0  0  0  0  0  0  0
   -0.1716    7.5775   -4.4171 C   0  0  0  0  0  0  0  0  0  0  0  0
   -0.5991    6.3157   -2.3181 C   0  0  0  0  0  0  0  0  0  0  0  0
    8.5414    3.7975   -7.8775 C   0  0  0  0  0  0  0  0  0  0  0  0
    9.2087    4.6989   -6.8290 C   0  0  0  0  0  0  0  0  0  0  0  0
    9.4641    2.6048   -8.1433 C   0  0  0  0  0  0  0  0  0  0  0  0
    8.3685    4.5751   -9.1898 C   0  0  0  0  0  0  0  0  0  0  0  0
   -3.4341    2.3815    1.4586 H   0  0  0  0  0  0  0  0  0  0  0  0
   -4.5173    1.8622    0.1683 H   0  0  0  0  0  0  0  0  0  0  0  0
   -4.1467    3.5792    0.3785 H   0  0  0  0  0  0  0  0  0  0  0  0
   -1.6882    0.8127    0.6864 H   0  0  0  0  0  0  0  0  0  0  0  0
   -1.1049    0.8530   -0.9818 H   0  0  0  0  0  0  0  0  0  0  0  0
   -2.7304    0.2732   -0.6373 H   0  0  0  0  0  0  0  0  0  0  0  0
   -1.2170    3.2933    0.9881 H   0  0  0  0  0  0  0  0  0  0  0  0
   -1.8340    4.4513   -0.1964 H   0  0  0  0  0  0  0  0  0  0  0  0
   -0.5527    3.3193   -0.6437 H   0  0  0  0  0  0  0  0  0  0  0  0
   -1.0648    7.2020   -1.8864 H   0  0  0  0  0  0  0  0  0  0  0  0
   -0.1682    5.7313   -1.5094 H   0  0  0  0  0  0  0  0  0  0  0  0
   -1.3739    5.7293   -2.8052 H   0  0  0  0  0  0  0  0  0  0  0  0
    1.0449    8.4332   -2.0836 H   0  0  0  0  0  0  0  0  0  0  0  0
    2.2892    7.9505   -3.2399 H   0  0  0  0  0  0  0  0  0  0  0  0
    2.0090    6.9790   -1.7972 H   0  0  0  0  0  0  0  0  0  0  0  0
   -0.6801    8.4413   -3.9882 H   0  0  0  0  0  0  0  0  0  0  0  0
   -0.9001    6.9745   -4.9543 H   0  0  0  0  0  0  0  0  0  0  0  0
    0.5708    7.9289   -5.1291 H   0  0  0  0  0  0  0  0  0  0  0  0
   10.1928    5.0218   -7.1703 H   0  0  0  0  0  0  0  0  0  0  0  0
    9.3262    4.1564   -5.8931 H   0  0  0  0  0  0  0  0  0  0  0  0
    8.6041    5.5804   -6.6349 H   0  0  0  0  0  0  0  0  0  0  0  0
   10.4267    2.9581   -8.5148 H   0  0  0  0  0  0  0  0  0  0  0  0
    9.0330    1.9410   -8.8890 H   0  0  0  0  0  0  0  0  0  0  0  0
    9.6378    2.0396   -7.2310 H   0  0  0  0  0  0  0  0  0  0  0  0
    9.3364    4.9005   -9.5729 H   0  0  0  0  0  0  0  0  0  0  0  0
    7.7440    5.4515   -9.0418 H   0  0  0  0  0  0  0  0  0  0  0  0
    7.8934    3.9431   -9.9375 H   0  0  0  0  0  0  0  0  0  0  0  0
   -0.1200   -2.0214  -11.1832 H   0  0  0  0  0  0  0  0  0  0  0  0
    0.1490   -0.5867  -10.1816 H   0  0  0  0  0  0  0  0  0  0  0  0
   -1.3586   -0.7626  -11.0757 H   0  0  0  0  0  0  0  0  0  0  0  0
   -1.8405   -3.7662  -10.4232 H   0  0  0  0  0  0  0  0  0  0  0  0
   -3.0731   -2.5046  -10.3205 H   0  0  0  0  0  0  0  0  0  0  0  0
   -2.7291   -3.5089   -8.9150 H   0  0  0  0  0  0  0  0  0  0  0  0
    0.3210   -3.5305   -9.2748 H   0  0  0  0  0  0  0  0  0  0  0  0
   -0.5039   -3.3238   -7.7290 H   0  0  0  0  0  0  0  0  0  0  0  0
    0.6902   -2.1307   -8.2657 H   0  0  0  0  0  0  0  0  0  0  0  0
    0.5434   -4.3695   -3.9686 H   0  0  0  0  0  0  0  0  0  0  0  0
   -0.0140   -3.2791   -5.2367 H   0  0  0  0  0  0  0  0  0  0  0  0
    0.3553   -2.6488   -3.6291 H   0  0  0  0  0  0  0  0  0  0  0  0
    2.3017   -5.1942   -5.4909 H   0  0  0  0  0  0  0  0  0  0  0  0
    3.5226   -4.1044   -6.1532 H   0  0  0  0  0  0  0  0  0  0  0  0
    1.8695   -4.0403   -6.7598 H   0  0  0  0  0  0  0  0  0  0  0  0
    2.8516   -4.3404   -3.1441 H   0  0  0  0  0  0  0  0  0  0  0  0
    2.7492   -2.6073   -2.8071 H   0  0  0  0  0  0  0  0  0  0  0  0
    4.0504   -3.2291   -3.8174 H   0  0  0  0  0  0  0  0  0  0  0  0
   -9.9063    4.7673   -9.4803 H   0  0  0  0  0  0  0  0  0  0  0  0
   -8.3450    4.0322   -9.8606 H   0  0  0  0  0  0  0  0  0  0  0  0
   -8.4310    5.3483   -8.6945 H   0  0  0  0  0  0  0  0  0  0  0  0
  -10.8417    2.4725   -8.8576 H   0  0  0  0  0  0  0  0  0  0  0  0
  -10.0009    1.4887   -7.6507 H   0  0  0  0  0  0  0  0  0  0  0  0
   -9.2826    1.7334   -9.2398 H   0  0  0  0  0  0  0  0  0  0  0  0
  -10.9906    4.3904   -7.3002 H   0  0  0  0  0  0  0  0  0  0  0  0
   -9.5651    5.0030   -6.4581 H   0  0  0  0  0  0  0  0  0  0  0  0
  -10.2271    3.4185   -6.0408 H   0  0  0  0  0  0  0  0  0  0  0  0
   -8.0884    3.6372   -5.3156 H   0  0  0  0  0  0  0  0  0  0  0  0
   -7.0683    2.2635   -9.2549 H   0  0  0  0  0  0  0  0  0  0  0  0
   -3.3078   -0.3161   -9.8784 H   0  0  0  0  0  0  0  0  0  0  0  0
   -0.6024   -1.2517   -6.7308 H   0  0  0  0  0  0  0  0  0  0  0  0
   -4.9927    3.1071   -1.7117 H   0  0  0  0  0  0  0  0  0  0  0  0
   -0.8789    2.3565   -2.6476 H   0  0  0  0  0  0  0  0  0  0  0  0
   -0.0211    4.0280   -3.0927 H   0  0  0  0  0  0  0  0  0  0  0  0
    2.5813    6.7412   -5.0885 H   0  0  0  0  0  0  0  0  0  0  0  0
    6.4102    5.3899   -7.2228 H   0  0  0  0  0  0  0  0  0  0  0  0
    7.5059    1.2383   -7.3041 H   0  0  0  0  0  0  0  0  0  0  0  0
    4.4467   -2.0951   -5.8149 H   0  0  0  0  0  0  0  0  0  0  0  0
    0.3557   -1.0065   -5.1373 H   0  0  0  0  0  0  0  0  0  0  0  0
   -0.3895   -2.2086    9.2321 C   0  0  0  0  0  0  0  0  0  0  0  0
   -1.1432   -2.0606   10.3973 C   0  0  0  0  0  0  0  0  0  0  0  0
   -2.1460   -1.0370   10.4426 C   0  0  0  0  0  0  0  0  0  0  0  0
   -2.2613   -0.2339    9.2741 C   0  0  0  0  0  0  0  0  0  0  0  0
   -1.4261   -0.3837    8.1731 C   0  0  0  0  0  0  0  0  0  0  0  0
   -0.4811   -1.3863    8.1186 C   0  0  0  0  0  0  0  0  0  0  0  0
   -3.1079   -0.8091   11.4925 C   0  0  0  0  0  0  0  0  0  0  0  0
   -4.2964   -0.0933   11.1937 C   0  0  0  0  0  0  0  0  0  0  0  0
   -4.4044    0.7204   10.0455 C   0  0  0  0  0  0  0  0  0  0  0  0
   -3.2851    0.8000    9.1148 C   0  0  0  0  0  0  0  0  0  0  0  0
   -3.0179   -1.3577   12.8054 C   0  0  0  0  0  0  0  0  0  0  0  0
   -4.1818   -1.5768   13.5832 C   0  0  0  0  0  0  0  0  0  0  0  0
   -5.4600   -0.9847   13.2227 C   0  0  0  0  0  0  0  0  0  0  0  0
   -5.4359   -0.1344   12.0375 C   0  0  0  0  0  0  0  0  0  0  0  0
   -6.5774    0.5903   11.7206 C   0  0  0  0  0  0  0  0  0  0  0  0
   -6.6664    1.4053   10.5993 C   0  0  0  0  0  0  0  0  0  0  0  0
   -5.5505    1.4562    9.7764 C   0  0  0  0  0  0  0  0  0  0  0  0
   -1.7808   -1.7520   13.3723 C   0  0  0  0  0  0  0  0  0  0  0  0
   -1.8053   -2.7014   14.3920 C   0  0  0  0  0  0  0  0  0  0  0  0
   -2.9699   -3.0375   15.0770 C   0  0  0  0  0  0  0  0  0  0  0  0
   -4.1324   -2.3812   14.7202 C   0  0  0  0  0  0  0  0  0  0  0  0
   -0.8392   -2.9338   11.4092 O   0  0  0  0  0  0  0  0  0  0  0  0
   -0.6272   -1.2122   12.9088 O   0  0  0  0  0  0  0  0  0  0  0  0
    0.2209   -2.2568   12.3155 B   0  0  0  0  0  0  0  0  0  0  0  0
    1.6929   -4.2238   10.7302 C   0  0  0  0  0  0  0  0  0  0  0  0
    2.1478   -3.0525   11.3239 C   0  0  0  0  0  0  0  0  0  0  0  0
    3.4746   -3.0374   11.8155 C   0  0  0  0  0  0  0  0  0  0  0  0
    4.3725   -3.9885   11.2778 C   0  0  0  0  0  0  0  0  0  0  0  0
    3.8990   -5.0787   10.5444 C   0  0  0  0  0  0  0  0  0  0  0  0
    2.5452   -5.2674   10.3621 C   0  0  0  0  0  0  0  0  0  0  0  0
    3.8913   -2.1384   12.8448 C   0  0  0  0  0  0  0  0  0  0  0  0
    5.2823   -1.8879   12.9190 C   0  0  0  0  0  0  0  0  0  0  0  0
    6.2257   -2.6616   12.1951 C   0  0  0  0  0  0  0  0  0  0  0  0
    3.0193   -1.5861   13.8474 C   0  0  0  0  0  0  0  0  0  0  0  0
    3.5618   -0.5818   14.6992 C   0  0  0  0  0  0  0  0  0  0  0  0
    4.9254   -0.0703   14.5672 C   0  0  0  0  0  0  0  0  0  0  0  0
    5.8096   -0.8374   13.7042 C   0  0  0  0  0  0  0  0  0  0  0  0
    7.1610   -0.5254   13.6683 C   0  0  0  0  0  0  0  0  0  0  0  0
    8.0725   -1.2464   12.9072 C   0  0  0  0  0  0  0  0  0  0  0  0
    7.5758   -2.3361   12.2059 C   0  0  0  0  0  0  0  0  0  0  0  0
    1.6867   -2.0188   14.1634 C   0  0  0  0  0  0  0  0  0  0  0  0
    1.0468   -1.4574   15.2655 C   0  0  0  0  0  0  0  0  0  0  0  0
    1.5725   -0.4510   16.0639 C   0  0  0  0  0  0  0  0  0  0  0  0
    2.8388   -0.0160   15.7471 C   0  0  0  0  0  0  0  0  0  0  0  0
    0.9565   -2.9591   13.4848 O   0  0  0  0  0  0  0  0  0  0  0  0
    1.3735   -1.9450   11.4679 O   0  0  0  0  0  0  0  0  0  0  0  0
    5.8071   -3.8625   11.4756 C   0  0  0  0  0  0  0  0  0  0  0  0
    5.3328    0.9102   15.2088 O   0  0  0  0  0  0  0  0  0  0  0  0
    6.6249   -4.6908   11.0481 O   0  0  0  0  0  0  0  0  0  0  0  0
   -3.2514    1.6397    8.2102 O   0  0  0  0  0  0  0  0  0  0  0  0
   -6.4940   -1.1631   13.8862 O   0  0  0  0  0  0  0  0  0  0  0  0
    0.4243   -1.5153    6.9043 C   0  0  0  0  0  0  0  0  0  0  0  0
    1.3339   -2.7440    6.9683 C   0  0  0  0  0  0  0  0  0  0  0  0
    1.3053   -0.2605    6.8347 C   0  0  0  0  0  0  0  0  0  0  0  0
   -0.4302   -1.6187    5.6328 C   0  0  0  0  0  0  0  0  0  0  0  0
   -2.9937   -4.0627   16.2023 C   0  0  0  0  0  0  0  0  0  0  0  0
   -3.4588   -3.3805   17.4972 C   0  0  0  0  0  0  0  0  0  0  0  0
   -3.9793   -5.1789   15.8274 C   0  0  0  0  0  0  0  0  0  0  0  0
   -1.6244   -4.6982   16.4558 C   0  0  0  0  0  0  0  0  0  0  0  0
   -7.9483    2.1753   10.3189 C   0  0  0  0  0  0  0  0  0  0  0  0
   -8.2453    3.1059   11.5034 C   0  0  0  0  0  0  0  0  0  0  0  0
   -9.1027    1.1780   10.1455 C   0  0  0  0  0  0  0  0  0  0  0  0
   -7.8538    3.0269    9.0502 C   0  0  0  0  0  0  0  0  0  0  0  0
    1.9468   -6.5433    9.7871 C   0  0  0  0  0  0  0  0  0  0  0  0
    1.1525   -6.2268    8.5138 C   0  0  0  0  0  0  0  0  0  0  0  0
    1.0092   -7.1526   10.8392 C   0  0  0  0  0  0  0  0  0  0  0  0
    3.0184   -7.5804    9.4365 C   0  0  0  0  0  0  0  0  0  0  0  0
    0.7944    0.1944   17.2006 C   0  0  0  0  0  0  0  0  0  0  0  0
    1.6230    0.1319   18.4924 C   0  0  0  0  0  0  0  0  0  0  0  0
    0.5321    1.6590   16.8245 C   0  0  0  0  0  0  0  0  0  0  0  0
   -0.5515   -0.4866   17.4624 C   0  0  0  0  0  0  0  0  0  0  0  0
    9.5358   -0.8301   12.8835 C   0  0  0  0  0  0  0  0  0  0  0  0
   10.1075   -0.9089   14.3063 C   0  0  0  0  0  0  0  0  0  0  0  0
   10.3843   -1.7214   11.9724 C   0  0  0  0  0  0  0  0  0  0  0  0
    9.6333    0.6130   12.3687 C   0  0  0  0  0  0  0  0  0  0  0  0
   -4.0299   -5.9290   16.6178 H   0  0  0  0  0  0  0  0  0  0  0  0
   -3.6559   -5.6626   14.9083 H   0  0  0  0  0  0  0  0  0  0  0  0
   -4.9761   -4.7774   15.6659 H   0  0  0  0  0  0  0  0  0  0  0  0
   -1.7056   -5.4450   17.2470 H   0  0  0  0  0  0  0  0  0  0  0  0
   -0.8981   -3.9519   16.7677 H   0  0  0  0  0  0  0  0  0  0  0  0
   -1.2531   -5.1881   15.5596 H   0  0  0  0  0  0  0  0  0  0  0  0
   -3.4810   -4.0964   18.3198 H   0  0  0  0  0  0  0  0  0  0  0  0
   -4.4541   -2.9610   17.3790 H   0  0  0  0  0  0  0  0  0  0  0  0
   -2.7790   -2.5723   17.7577 H   0  0  0  0  0  0  0  0  0  0  0  0
   -1.0595    0.0082   18.2914 H   0  0  0  0  0  0  0  0  0  0  0  0
   -0.4079   -1.5324   17.7273 H   0  0  0  0  0  0  0  0  0  0  0  0
   -1.1949   -0.4292   16.5882 H   0  0  0  0  0  0  0  0  0  0  0  0
    1.0800    0.5968   19.3161 H   0  0  0  0  0  0  0  0  0  0  0  0
    2.5714    0.6474   18.3721 H   0  0  0  0  0  0  0  0  0  0  0  0
    1.8302   -0.9043   18.7544 H   0  0  0  0  0  0  0  0  0  0  0  0
   -0.0243    2.1666   17.6134 H   0  0  0  0  0  0  0  0  0  0  0  0
   -0.0465    1.7022   15.9048 H   0  0  0  0  0  0  0  0  0  0  0  0
    1.4677    2.1875   16.6618 H   0  0  0  0  0  0  0  0  0  0  0  0
   11.1550   -0.6057   14.3158 H   0  0  0  0  0  0  0  0  0  0  0  0
   10.0374   -1.9288   14.6802 H   0  0  0  0  0  0  0  0  0  0  0  0
    9.5548   -0.2616   14.9816 H   0  0  0  0  0  0  0  0  0  0  0  0
   11.4178   -1.3730   11.9733 H   0  0  0  0  0  0  0  0  0  0  0  0
   10.0150   -1.6896   10.9504 H   0  0  0  0  0  0  0  0  0  0  0  0
   10.3724   -2.7529   12.3166 H   0  0  0  0  0  0  0  0  0  0  0  0
   10.6728    0.9413   12.3406 H   0  0  0  0  0  0  0  0  0  0  0  0
    9.0740    1.2918   13.0064 H   0  0  0  0  0  0  0  0  0  0  0  0
    9.2216    0.6775   11.3636 H   0  0  0  0  0  0  0  0  0  0  0  0
    1.9732   -0.3114    5.9754 H   0  0  0  0  0  0  0  0  0  0  0  0
    1.9040   -0.1801    7.7394 H   0  0  0  0  0  0  0  0  0  0  0  0
    0.6964    0.6354    6.7477 H   0  0  0  0  0  0  0  0  0  0  0  0
    0.2082   -1.7225    4.7565 H   0  0  0  0  0  0  0  0  0  0  0  0
   -1.0481   -0.7355    5.5004 H   0  0  0  0  0  0  0  0  0  0  0  0
   -1.0847   -2.4867    5.6893 H   0  0  0  0  0  0  0  0  0  0  0  0
    1.9628   -2.7794    6.0790 H   0  0  0  0  0  0  0  0  0  0  0  0
    0.7423   -3.6555    7.0025 H   0  0  0  0  0  0  0  0  0  0  0  0
    1.9828   -2.7086    7.8396 H   0  0  0  0  0  0  0  0  0  0  0  0
    0.7414   -7.1411    8.0846 H   0  0  0  0  0  0  0  0  0  0  0  0
    1.8013   -5.7594    7.7760 H   0  0  0  0  0  0  0  0  0  0  0  0
    0.3293   -5.5516    8.7279 H   0  0  0  0  0  0  0  0  0  0  0  0
    2.5441   -8.4885    9.0630 H   0  0  0  0  0  0  0  0  0  0  0  0
    3.6087   -7.8383   10.3127 H   0  0  0  0  0  0  0  0  0  0  0  0
    3.6841   -7.2026    8.6643 H   0  0  0  0  0  0  0  0  0  0  0  0
    0.5441   -8.0617   10.4565 H   0  0  0  0  0  0  0  0  0  0  0  0
    0.2269   -6.4504   11.1116 H   0  0  0  0  0  0  0  0  0  0  0  0
    1.5693   -7.3987   11.7394 H   0  0  0  0  0  0  0  0  0  0  0  0
   -9.1604    3.6713   11.3251 H   0  0  0  0  0  0  0  0  0  0  0  0
   -7.4248    3.8076   11.6398 H   0  0  0  0  0  0  0  0  0  0  0  0
   -8.3635    2.5394   12.4230 H   0  0  0  0  0  0  0  0  0  0  0  0
   -8.7914    3.5609    8.8935 H   0  0  0  0  0  0  0  0  0  0  0  0
   -7.6680    2.4047    8.1784 H   0  0  0  0  0  0  0  0  0  0  0  0
   -7.0546    3.7592    9.1335 H   0  0  0  0  0  0  0  0  0  0  0  0
  -10.0370    1.7049    9.9498 H   0  0  0  0  0  0  0  0  0  0  0  0
   -9.2288    0.5700   11.0373 H   0  0  0  0  0  0  0  0  0  0  0  0
   -8.8974    0.5138    9.3083 H   0  0  0  0  0  0  0  0  0  0  0  0
   -7.4092    0.4831   12.4038 H   0  0  0  0  0  0  0  0  0  0  0  0
   -5.5217    2.0625    8.8841 H   0  0  0  0  0  0  0  0  0  0  0  0
   -1.5730    0.3139    7.3618 H   0  0  0  0  0  0  0  0  0  0  0  0
    0.3416   -2.9940    9.2321 H   0  0  0  0  0  0  0  0  0  0  0  0
   -5.0590   -2.5089   15.2611 H   0  0  0  0  0  0  0  0  0  0  0  0
   -0.8808   -3.2047   14.6065 H   0  0  0  0  0  0  0  0  0  0  0  0
    0.0566   -1.8123   15.4731 H   0  0  0  0  0  0  0  0  0  0  0  0
    3.3353    0.7691   16.2993 H   0  0  0  0  0  0  0  0  0  0  0  0
    7.4711    0.3158   14.2733 H   0  0  0  0  0  0  0  0  0  0  0  0
    8.2191   -2.9862   11.6320 H   0  0  0  0  0  0  0  0  0  0  0  0
    4.6431   -5.7719   10.1848 H   0  0  0  0  0  0  0  0  0  0  0  0
    0.6300   -4.3303   10.5980 H   0  0  0  0  0  0  0  0  0  0  0  0
  1  2  2  0  0  0  0
  1133  1  0  0  0  0
  2  3  1  0  0  0  0
  2 22  1  0  0  0  0
  3  4  2  0  0  0  0
  3  7  1  0  0  0  0
  4  5  1  0  0  0  0
  5  6  2  0  0  0  0
  5132  1  0  0  0  0
  6 52  1  0  0  0  0
  6  1  1  0  0  0  0
  7  8  1  0  0  0  0
  7 11  1  0  0  0  0
  8  9  2  0  0  0  0
  9 10  1  0  0  0  0
 10  4  1  0  0  0  0
 10 50  2  0  0  0  0
 11 12  2  0  0  0  0
 11 18  1  0  0  0  0
 13 14  1  0  0  0  0
 13 12  1  0  0  0  0
 13 51  2  0  0  0  0
 14  8  1  0  0  0  0
 14 15  2  0  0  0  0
 15 16  1  0  0  0  0
 15130  1  0  0  0  0
 16 60  1  0  0  0  0
 16 17  2  0  0  0  0
 17  9  1  0  0  0  0
 17131  1  0  0  0  0
 18 19  2  0  0  0  0
 18 23  1  0  0  0  0
 19 20  1  0  0  0  0
 19135  1  0  0  0  0
 20 56  1  0  0  0  0
 20 21  2  0  0  0  0
 21 12  1  0  0  0  0
 21134  1  0  0  0  0
 24 23  1  0  0  0  0
 24 22  1  0  0  0  0
 25 26  2  0  0  0  0
 25141  1  0  0  0  0
 26 27  1  0  0  0  0
 26 46  1  0  0  0  0
 27 28  2  0  0  0  0
 27 31  1  0  0  0  0
 28 29  1  0  0  0  0
 28 47  1  0  0  0  0
 29 30  2  0  0  0  0
 29140  1  0  0  0  0
 30 64  1  0  0  0  0
 30 25  1  0  0  0  0
 31 32  1  0  0  0  0
 32 33  2  0  0  0  0
 34 35  2  0  0  0  0
 34 41  1  0  0  0  0
 34 31  1  0  0  0  0
 36 37  1  0  0  0  0
 36 35  1  0  0  0  0
 36 48  2  0  0  0  0
 37 32  1  0  0  0  0
 37 38  2  0  0  0  0
 38 39  1  0  0  0  0
 38138  1  0  0  0  0
 39 72  1  0  0  0  0
 39 40  2  0  0  0  0
 40 33  1  0  0  0  0
 40139  1  0  0  0  0
 41 42  2  0  0  0  0
 41 45  1  0  0  0  0
 42 43  1  0  0  0  0
 42136  1  0  0  0  0
 43 68  1  0  0  0  0
 43 44  2  0  0  0  0
 44 35  1  0  0  0  0
 44137  1  0  0  0  0
 45 24  1  0  0  0  0
 46 24  1  0  0  0  0
 47 33  1  0  0  0  0
 47 49  2  0  0  0  0
 52 53  1  0  0  0  0
 52 54  1  0  0  0  0
 52 55  1  0  0  0  0
 53109  1  0  0  0  0
 53110  1  0  0  0  0
 53111  1  0  0  0  0
 54103  1  0  0  0  0
 54104  1  0  0  0  0
 54105  1  0  0  0  0
 55106  1  0  0  0  0
 55107  1  0  0  0  0
 55108  1  0  0  0  0
 56 57  1  0  0  0  0
 56 58  1  0  0  0  0
 56 59  1  0  0  0  0
 57 82  1  0  0  0  0
 57 83  1  0  0  0  0
 57 84  1  0  0  0  0
 58 76  1  0  0  0  0
 58 77  1  0  0  0  0
 58 78  1  0  0  0  0
 59 79  1  0  0  0  0
 59 80  1  0  0  0  0
 59 81  1  0  0  0  0
 60 61  1  0  0  0  0
 60 62  1  0  0  0  0
 60 63  1  0  0  0  0
 61121  1  0  0  0  0
 61122  1  0  0  0  0
 61123  1  0  0  0  0
 62127  1  0  0  0  0
 62128  1  0  0  0  0
 62129  1  0  0  0  0
 63124  1  0  0  0  0
 63125  1  0  0  0  0
 63126  1  0  0  0  0
 64 65  1  0  0  0  0
 64 66  1  0  0  0  0
 64 67  1  0  0  0  0
 65112  1  0  0  0  0
 65113  1  0  0  0  0
 65114  1  0  0  0  0
 66118  1  0  0  0  0
 66119  1  0  0  0  0
 66120  1  0  0  0  0
 67115  1  0  0  0  0
 67116  1  0  0  0  0
 67117  1  0  0  0  0
 68 69  1  0  0  0  0
 68 70  1  0  0  0  0
 68 71  1  0  0  0  0
 69 88  1  0  0  0  0
 69 89  1  0  0  0  0
 69 90  1  0  0  0  0
 70 91  1  0  0  0  0
 70 92  1  0  0  0  0
 70 93  1  0  0  0  0
 71 85  1  0  0  0  0
 71 86  1  0  0  0  0
 71 87  1  0  0  0  0
 72 73  1  0  0  0  0
 72 74  1  0  0  0  0
 72 75  1  0  0  0  0
 73 94  1  0  0  0  0
 73 95  1  0  0  0  0
 73 96  1  0  0  0  0
 74 97  1  0  0  0  0
 74 98  1  0  0  0  0
 74 99  1  0  0  0  0
 75100  1  0  0  0  0
 75101  1  0  0  0  0
 75102  1  0  0  0  0
142143  2  0  0  0  0
142274  1  0  0  0  0
143144  1  0  0  0  0
143163  1  0  0  0  0
144145  2  0  0  0  0
144148  1  0  0  0  0
145146  1  0  0  0  0
146147  2  0  0  0  0
146273  1  0  0  0  0
147193  1  0  0  0  0
147142  1  0  0  0  0
148149  1  0  0  0  0
148152  1  0  0  0  0
149150  2  0  0  0  0
150151  1  0  0  0  0
151145  1  0  0  0  0
151191  2  0  0  0  0
152153  2  0  0  0  0
152159  1  0  0  0  0
154155  1  0  0  0  0
154153  1  0  0  0  0
154192  2  0  0  0  0
155149  1  0  0  0  0
155156  2  0  0  0  0
156157  1  0  0  0  0
156271  1  0  0  0  0
157201  1  0  0  0  0
157158  2  0  0  0  0
158150  1  0  0  0  0
158272  1  0  0  0  0
159160  2  0  0  0  0
159164  1  0  0  0  0
160161  1  0  0  0  0
160276  1  0  0  0  0
161197  1  0  0  0  0
161162  2  0  0  0  0
162153  1  0  0  0  0
162275  1  0  0  0  0
165164  1  0  0  0  0
165163  1  0  0  0  0
166167  2  0  0  0  0
166282  1  0  0  0  0
167168  1  0  0  0  0
167187  1  0  0  0  0
168169  2  0  0  0  0
168172  1  0  0  0  0
169170  1  0  0  0  0
169188  1  0  0  0  0
170171  2  0  0  0  0
170281  1  0  0  0  0
171205  1  0  0  0  0
171166  1  0  0  0  0
172173  1  0  0  0  0
173174  2  0  0  0  0
175176  2  0  0  0  0
175182  1  0  0  0  0
175172  1  0  0  0  0
177178  1  0  0  0  0
177176  1  0  0  0  0
177189  2  0  0  0  0
178173  1  0  0  0  0
178179  2  0  0  0  0
179180  1  0  0  0  0
179279  1  0  0  0  0
180213  1  0  0  0  0
180181  2  0  0  0  0
181174  1  0  0  0  0
181280  1  0  0  0  0
182183  2  0  0  0  0
182186  1  0  0  0  0
183184  1  0  0  0  0
183277  1  0  0  0  0
184209  1  0  0  0  0
184185  2  0  0  0  0
185176  1  0  0  0  0
185278  1  0  0  0  0
186165  1  0  0  0  0
187165  1  0  0  0  0
188174  1  0  0  0  0
188190  2  0  0  0  0
193194  1  0  0  0  0
193195  1  0  0  0  0
193196  1  0  0  0  0
194250  1  0  0  0  0
194251  1  0  0  0  0
194252  1  0  0  0  0
195244  1  0  0  0  0
195245  1  0  0  0  0
195246  1  0  0  0  0
196247  1  0  0  0  0
196248  1  0  0  0  0
196249  1  0  0  0  0
197198  1  0  0  0  0
197199  1  0  0  0  0
197200  1  0  0  0  0
198223  1  0  0  0  0
198224  1  0  0  0  0
198225  1  0  0  0  0
199217  1  0  0  0  0
199218  1  0  0  0  0
199219  1  0  0  0  0
200220  1  0  0  0  0
200221  1  0  0  0  0
200222  1  0  0  0  0
201202  1  0  0  0  0
201203  1  0  0  0  0
201204  1  0  0  0  0
202262  1  0  0  0  0
202263  1  0  0  0  0
202264  1  0  0  0  0
203268  1  0  0  0  0
203269  1  0  0  0  0
203270  1  0  0  0  0
204265  1  0  0  0  0
204266  1  0  0  0  0
204267  1  0  0  0  0
205206  1  0  0  0  0
205207  1  0  0  0  0
205208  1  0  0  0  0
206253  1  0  0  0  0
206254  1  0  0  0  0
206255  1  0  0  0  0
207259  1  0  0  0  0
207260  1  0  0  0  0
207261  1  0  0  0  0
208256  1  0  0  0  0
208257  1  0  0  0  0
208258  1  0  0  0  0
209210  1  0  0  0  0
209211  1  0  0  0  0
209212  1  0  0  0  0
210229  1  0  0  0  0
210230  1  0  0  0  0
210231  1  0  0  0  0
211232  1  0  0  0  0
211233  1  0  0  0  0
211234  1  0  0  0  0
212226  1  0  0  0  0
212227  1  0  0  0  0
212228  1  0  0  0  0
213214  1  0  0  0  0
213215  1  0  0  0  0
213216  1  0  0  0  0
214235  1  0  0  0  0
214236  1  0  0  0  0
214237  1  0  0  0  0
215238  1  0  0  0  0
215239  1  0  0  0  0
215240  1  0  0  0  0
216241  1  0  0  0  0
216242  1  0  0  0  0
216243  1  0  0  0  0
M  CHG  1  24  -1
M  CHG  1  31  -1
M  CHG  1 165  -1
M  CHG  1 172  -1
M  END
