 energy: -145.584005707426 gnorm: 0.000135629122 xtb: 6.7.1 (edcfbbe)
          03042513083D

 55 59  0     0  0            999 V2000
   -2.3026    2.2012   -1.6153 C   0  0  0  0  0  0  0  0  0  0  0  0
   -2.0672    0.9766   -0.9841 C   0  0  0  0  0  0  0  0  0  0  0  0
   -1.0502    0.9122    0.0080 C   0  0  0  0  0  0  0  0  0  0  0  0
   -0.1198    2.0110    0.1103 C   0  0  0  0  0  0  0  0  0  0  0  0
   -0.4057    3.2467   -0.5433 C   0  0  0  0  0  0  0  0  0  0  0  0
   -1.4978    3.3010   -1.3476 C   0  0  0  0  0  0  0  0  0  0  0  0
   -0.7985   -0.2227    0.8397 C   0  0  0  0  0  0  0  0  0  0  0  0
    0.5108   -0.3459    1.3490 C   0  0  0  0  0  0  0  0  0  0  0  0
    1.4148    0.7510    1.2582 C   0  0  0  0  0  0  0  0  0  0  0  0
    1.0430    1.9118    0.7281 N   0  0  0  0  0  0  0  0  0  0  0  0
   -1.7224   -1.2474    1.2129 C   0  0  0  0  0  0  0  0  0  0  0  0
   -1.1581   -2.4871    1.6909 C   0  0  0  0  0  0  0  0  0  0  0  0
    0.1137   -2.6166    2.0211 N   0  0  0  0  0  0  0  0  0  0  0  0
    0.9267   -1.5672    1.9523 C   0  0  0  0  0  0  0  0  0  0  0  0
    2.2573   -1.6798    2.4262 C   0  0  0  0  0  0  0  0  0  0  0  0
    3.0943   -0.5895    2.3519 C   0  0  0  0  0  0  0  0  0  0  0  0
    2.7147    0.6155    1.8056 C   0  0  0  0  0  0  0  0  0  0  0  0
   -3.1344   -1.0845    1.2582 C   0  0  0  0  0  0  0  0  0  0  0  0
   -3.9261   -2.2138    1.4854 C   0  0  0  0  0  0  0  0  0  0  0  0
   -3.3417   -3.4444    1.7556 C   0  0  0  0  0  0  0  0  0  0  0  0
   -2.0032   -3.6176    1.9003 C   0  0  0  0  0  0  0  0  0  0  0  0
   -3.6197    0.1436    1.1256 O   0  0  0  0  0  0  0  0  0  0  0  0
   -2.7070   -0.1460   -1.2872 O   0  0  0  0  0  0  0  0  0  0  0  0
    0.2671    4.0781   -0.4142 H   0  0  0  0  0  0  0  0  0  0  0  0
   -3.1127    2.3204   -2.3158 H   0  0  0  0  0  0  0  0  0  0  0  0
    3.3849    1.4627    1.7859 H   0  0  0  0  0  0  0  0  0  0  0  0
    2.5923   -2.6219    2.8355 H   0  0  0  0  0  0  0  0  0  0  0  0
   -1.5642   -4.5540    2.2020 H   0  0  0  0  0  0  0  0  0  0  0  0
   -5.0015   -2.1566    1.4503 H   0  0  0  0  0  0  0  0  0  0  0  0
   -5.0139    0.3768    1.2870 C   0  0  0  0  0  0  0  0  0  0  0  0
   -3.6420   -0.1624   -2.3594 C   0  0  0  0  0  0  0  0  0  0  0  0
   -1.9445    4.8966   -2.1871 S   0  0  0  0  0  0  0  0  0  0  0  0
   -3.5359    4.6622   -1.8033 F   0  0  0  0  0  0  0  0  0  0  0  0
   -1.7282    5.7287   -0.7895 F   0  0  0  0  0  0  0  0  0  0  0  0
   -2.3564    6.2545   -2.9043 F   0  0  0  0  0  0  0  0  0  0  0  0
   -2.1940    4.1101   -3.6160 F   0  0  0  0  0  0  0  0  0  0  0  0
   -0.3837    5.1735   -2.6023 F   0  0  0  0  0  0  0  0  0  0  0  0
   -4.4860   -4.8925    1.9648 S   0  0  0  0  0  0  0  0  0  0  0  0
   -5.5025   -3.9932    2.9029 F   0  0  0  0  0  0  0  0  0  0  0  0
   -5.3372   -4.4225    0.6270 F   0  0  0  0  0  0  0  0  0  0  0  0
   -5.4845   -6.1197    2.1226 F   0  0  0  0  0  0  0  0  0  0  0  0
   -3.5218   -5.8296    1.0237 F   0  0  0  0  0  0  0  0  0  0  0  0
   -3.6846   -5.3977    3.3018 F   0  0  0  0  0  0  0  0  0  0  0  0
    4.8295   -0.7530    3.0244 S   0  0  0  0  0  0  0  0  0  0  0  0
    5.4359    0.0086    1.7034 F   0  0  0  0  0  0  0  0  0  0  0  0
    5.0041   -2.2025    2.2754 F   0  0  0  0  0  0  0  0  0  0  0  0
    6.3041   -0.8917    3.5958 F   0  0  0  0  0  0  0  0  0  0  0  0
    4.6908    0.6931    3.7873 F   0  0  0  0  0  0  0  0  0  0  0  0
    4.2624   -1.5184    4.3605 F   0  0  0  0  0  0  0  0  0  0  0  0
   -3.9592   -1.2001   -2.4473 H   0  0  0  0  0  0  0  0  0  0  0  0
   -3.1764    0.1572   -3.2936 H   0  0  0  0  0  0  0  0  0  0  0  0
   -4.5059    0.4691   -2.1422 H   0  0  0  0  0  0  0  0  0  0  0  0
   -5.1357    1.4554    1.2052 H   0  0  0  0  0  0  0  0  0  0  0  0
   -5.3585    0.0441    2.2680 H   0  0  0  0  0  0  0  0  0  0  0  0
   -5.5922   -0.1191    0.5046 H   0  0  0  0  0  0  0  0  0  0  0  0
  1  2  2  0  0  0  0
  1 25  1  0  0  0  0
  2  3  1  0  0  0  0
  2 23  1  0  0  0  0
  3  4  2  0  0  0  0
  3  7  1  0  0  0  0
  4  5  1  0  0  0  0
  5  6  2  0  0  0  0
  5 24  1  0  0  0  0
  6 32  1  0  0  0  0
  6  1  1  0  0  0  0
  7 11  2  0  0  0  0
  8  7  1  0  0  0  0
  8  9  1  0  0  0  0
  9 10  2  0  0  0  0
 10  4  1  0  0  0  0
 11 12  1  0  0  0  0
 11 18  1  0  0  0  0
 12 13  2  0  0  0  0
 13 14  1  0  0  0  0
 14  8  1  0  0  0  0
 14 15  2  0  0  0  0
 15 16  1  0  0  0  0
 15 27  1  0  0  0  0
 16 44  1  0  0  0  0
 16 17  2  0  0  0  0
 17  9  1  0  0  0  0
 17 26  1  0  0  0  0
 18 19  2  0  0  0  0
 19 20  1  0  0  0  0
 19 29  1  0  0  0  0
 20 38  1  0  0  0  0
 20 21  2  0  0  0  0
 21 12  1  0  0  0  0
 21 28  1  0  0  0  0
 22 30  1  0  0  0  0
 22 18  1  0  0  0  0
 23 31  1  0  0  0  0
 30 53  1  0  0  0  0
 30 54  1  0  0  0  0
 30 55  1  0  0  0  0
 31 50  1  0  0  0  0
 31 51  1  0  0  0  0
 31 52  1  0  0  0  0
 32 33  1  0  0  0  0
 32 34  1  0  0  0  0
 32 35  1  0  0  0  0
 32 36  1  0  0  0  0
 32 37  1  0  0  0  0
 38 39  1  0  0  0  0
 38 40  1  0  0  0  0
 38 41  1  0  0  0  0
 38 42  1  0  0  0  0
 38 43  1  0  0  0  0
 44 45  1  0  0  0  0
 44 46  1  0  0  0  0
 44 47  1  0  0  0  0
 44 48  1  0  0  0  0
 44 49  1  0  0  0  0
M  CHG  1   1   1
M  END
