 energy: -28.472324618938 gnorm: 0.000493738559 xtb: 6.7.1 (edcfbbe)
          03172511383D

156164  0     0  0            999 V2000
   -1.2694    1.7152    1.7578 C   0  0  0  0  0  0  0  0  0  0  0  0
   -1.2023    0.3879    1.3199 C   0  0  0  0  0  0  0  0  0  0  0  0
    0.0093   -0.0592    0.6922 C   0  0  0  0  0  0  0  0  0  0  0  0
    0.9495    0.9210    0.2955 C   0  0  0  0  0  0  0  0  0  0  0  0
    0.8126    2.2279    0.7292 C   0  0  0  0  0  0  0  0  0  0  0  0
   -0.2667    2.6337    1.5042 C   0  0  0  0  0  0  0  0  0  0  0  0
    0.2472   -1.4411    0.3635 C   0  0  0  0  0  0  0  0  0  0  0  0
    1.1333   -1.7359   -0.7251 C   0  0  0  0  0  0  0  0  0  0  0  0
    2.0224   -0.7567   -1.2172 C   0  0  0  0  0  0  0  0  0  0  0  0
    2.0351    0.5815   -0.6270 C   0  0  0  0  0  0  0  0  0  0  0  0
   -0.3567   -2.5459    1.0643 C   0  0  0  0  0  0  0  0  0  0  0  0
   -0.4750   -3.7980    0.4158 C   0  0  0  0  0  0  0  0  0  0  0  0
    0.2232   -4.0500   -0.8465 C   0  0  0  0  0  0  0  0  0  0  0  0
    1.1372   -3.0130   -1.3256 C   0  0  0  0  0  0  0  0  0  0  0  0
    2.0020   -3.2758   -2.3732 C   0  0  0  0  0  0  0  0  0  0  0  0
    2.8925   -2.3236   -2.8494 C   0  0  0  0  0  0  0  0  0  0  0  0
    2.8855   -1.0693   -2.2532 C   0  0  0  0  0  0  0  0  0  0  0  0
   -0.7518   -2.4649    2.4428 C   0  0  0  0  0  0  0  0  0  0  0  0
   -1.5014   -3.5176    2.9792 C   0  0  0  0  0  0  0  0  0  0  0  0
   -1.7840   -4.6662    2.2601 C   0  0  0  0  0  0  0  0  0  0  0  0
   -1.2096   -4.8125    1.0031 C   0  0  0  0  0  0  0  0  0  0  0  0
   -0.3109   -1.3845    3.1851 O   0  0  0  0  0  0  0  0  0  0  0  0
   -2.2730   -0.4869    1.3889 O   0  0  0  0  0  0  0  0  0  0  0  0
    2.8913    1.3993   -0.9285 O   0  0  0  0  0  0  0  0  0  0  0  0
    0.0835   -5.1021   -1.4517 O   0  0  0  0  0  0  0  0  0  0  0  0
   -0.7269   -1.3672    4.5270 C   0  0  0  0  0  0  0  0  0  0  0  0
   -3.3785   -0.0249    2.1261 C   0  0  0  0  0  0  0  0  0  0  0  0
   -2.6580   -5.7622    2.8835 C   0  0  0  0  0  0  0  0  0  0  0  0
   -3.0677   -6.8210    1.8409 C   0  0  0  0  0  0  0  0  0  0  0  0
   -3.9432   -5.1289    3.4496 C   0  0  0  0  0  0  0  0  0  0  0  0
   -0.4164    4.0773    2.0022 C   0  0  0  0  0  0  0  0  0  0  0  0
   -0.7352    4.0715    3.5084 C   0  0  0  0  0  0  0  0  0  0  0  0
    0.8771    4.8874    1.7894 C   0  0  0  0  0  0  0  0  0  0  0  0
   -1.5609    4.7592    1.2332 C   0  0  0  0  0  0  0  0  0  0  0  0
    3.8412   -2.6828   -4.0012 C   0  0  0  0  0  0  0  0  0  0  0  0
    4.7570   -1.5015   -4.3740 C   0  0  0  0  0  0  0  0  0  0  0  0
    3.0122   -3.0680   -5.2395 C   0  0  0  0  0  0  0  0  0  0  0  0
    4.7256   -3.8698   -3.5779 C   0  0  0  0  0  0  0  0  0  0  0  0
    2.3670   -2.2438   -5.5415 H   0  0  0  0  0  0  0  0  0  0  0  0
    2.3793   -3.9312   -5.0391 H   0  0  0  0  0  0  0  0  0  0  0  0
    3.6591   -3.3165   -6.0801 H   0  0  0  0  0  0  0  0  0  0  0  0
    5.4269   -1.7741   -5.1888 H   0  0  0  0  0  0  0  0  0  0  0  0
    5.3731   -1.2010   -3.5273 H   0  0  0  0  0  0  0  0  0  0  0  0
    4.1741   -0.6410   -4.7004 H   0  0  0  0  0  0  0  0  0  0  0  0
    5.4236   -4.1382   -4.3701 H   0  0  0  0  0  0  0  0  0  0  0  0
    4.1256   -4.7496   -3.3508 H   0  0  0  0  0  0  0  0  0  0  0  0
    5.3033   -3.6204   -2.6886 H   0  0  0  0  0  0  0  0  0  0  0  0
    1.9719   -4.2556   -2.8137 H   0  0  0  0  0  0  0  0  0  0  0  0
    3.5538   -0.2981   -2.5881 H   0  0  0  0  0  0  0  0  0  0  0  0
   -1.3109   -5.7310    0.4555 H   0  0  0  0  0  0  0  0  0  0  0  0
   -1.8460   -3.4475    3.9927 H   0  0  0  0  0  0  0  0  0  0  0  0
   -3.7485   -7.5506    2.2780 H   0  0  0  0  0  0  0  0  0  0  0  0
   -2.2014   -7.3666    1.4694 H   0  0  0  0  0  0  0  0  0  0  0  0
   -3.5734   -6.3580    0.9942 H   0  0  0  0  0  0  0  0  0  0  0  0
   -3.7240   -4.4506    4.2724 H   0  0  0  0  0  0  0  0  0  0  0  0
   -4.6227   -5.8955    3.8196 H   0  0  0  0  0  0  0  0  0  0  0  0
   -4.4644   -4.5634    2.6779 H   0  0  0  0  0  0  0  0  0  0  0  0
   -0.3285   -0.4674    4.9968 H   0  0  0  0  0  0  0  0  0  0  0  0
   -0.3357   -2.2426    5.0458 H   0  0  0  0  0  0  0  0  0  0  0  0
   -1.8158   -1.3383    4.5827 H   0  0  0  0  0  0  0  0  0  0  0  0
   -4.1111   -0.8299    2.1927 H   0  0  0  0  0  0  0  0  0  0  0  0
   -3.8337    0.8292    1.6235 H   0  0  0  0  0  0  0  0  0  0  0  0
   -3.0591    0.2442    3.1328 H   0  0  0  0  0  0  0  0  0  0  0  0
   -2.1472    2.0472    2.2767 H   0  0  0  0  0  0  0  0  0  0  0  0
    1.5685    2.9297    0.4296 H   0  0  0  0  0  0  0  0  0  0  0  0
   -1.6885    5.7915    1.5572 H   0  0  0  0  0  0  0  0  0  0  0  0
   -2.5047    4.2388    1.3907 H   0  0  0  0  0  0  0  0  0  0  0  0
   -1.3564    4.7630    0.1631 H   0  0  0  0  0  0  0  0  0  0  0  0
    1.7225    4.4071    2.2810 H   0  0  0  0  0  0  0  0  0  0  0  0
    0.7775    5.8905    2.2028 H   0  0  0  0  0  0  0  0  0  0  0  0
    1.1075    4.9929    0.7301 H   0  0  0  0  0  0  0  0  0  0  0  0
   -0.7970    5.0896    3.8909 H   0  0  0  0  0  0  0  0  0  0  0  0
    0.0404    3.5445    4.0631 H   0  0  0  0  0  0  0  0  0  0  0  0
   -1.6858    3.5829    3.7155 H   0  0  0  0  0  0  0  0  0  0  0  0
   -1.8737   -6.4528    4.0102 C   0  0  0  0  0  0  0  0  0  0  0  0
   -2.4743   -7.2233    4.4918 H   0  0  0  0  0  0  0  0  0  0  0  0
   -1.5717   -5.7369    4.7717 H   0  0  0  0  0  0  0  0  0  0  0  0
   -0.9703   -6.9205    3.6209 H   0  0  0  0  0  0  0  0  0  0  0  0
   -1.6902    2.3363    7.2633 C   0  0  0  0  0  0  0  0  0  0  0  0
   -1.7625    0.9521    7.0620 C   0  0  0  0  0  0  0  0  0  0  0  0
   -0.7696    0.1233    7.6881 C   0  0  0  0  0  0  0  0  0  0  0  0
    0.3859    0.7598    8.2016 C   0  0  0  0  0  0  0  0  0  0  0  0
    0.4170    2.1352    8.3448 C   0  0  0  0  0  0  0  0  0  0  0  0
   -0.6388    2.9378    7.9325 C   0  0  0  0  0  0  0  0  0  0  0  0
   -0.8565   -1.3161    7.7204 C   0  0  0  0  0  0  0  0  0  0  0  0
    0.3690   -2.0607    7.7962 C   0  0  0  0  0  0  0  0  0  0  0  0
    1.5732   -1.4364    8.1855 C   0  0  0  0  0  0  0  0  0  0  0  0
    1.5798   -0.0175    8.5345 C   0  0  0  0  0  0  0  0  0  0  0  0
   -2.0963   -2.0511    7.6853 C   0  0  0  0  0  0  0  0  0  0  0  0
   -2.0884   -3.4091    7.2865 C   0  0  0  0  0  0  0  0  0  0  0  0
   -0.8260   -4.1208    7.0839 C   0  0  0  0  0  0  0  0  0  0  0  0
    0.4018   -3.4345    7.4772 C   0  0  0  0  0  0  0  0  0  0  0  0
    1.5984   -4.1271    7.5310 C   0  0  0  0  0  0  0  0  0  0  0  0
    2.7844   -3.5182    7.9164 C   0  0  0  0  0  0  0  0  0  0  0  0
    2.7449   -2.1704    8.2475 C   0  0  0  0  0  0  0  0  0  0  0  0
   -3.3373   -1.5029    8.1556 C   0  0  0  0  0  0  0  0  0  0  0  0
   -4.5094   -2.2425    7.9545 C   0  0  0  0  0  0  0  0  0  0  0  0
   -4.5022   -3.5340    7.4605 C   0  0  0  0  0  0  0  0  0  0  0  0
   -3.2754   -4.1079    7.1568 C   0  0  0  0  0  0  0  0  0  0  0  0
   -3.3119   -0.3131    8.8618 O   0  0  0  0  0  0  0  0  0  0  0  0
   -2.6950    0.3523    6.2332 O   0  0  0  0  0  0  0  0  0  0  0  0
    2.5590    0.5072    9.0429 O   0  0  0  0  0  0  0  0  0  0  0  0
   -0.8033   -5.2599    6.6432 O   0  0  0  0  0  0  0  0  0  0  0  0
   -4.5616    0.1491    9.3147 C   0  0  0  0  0  0  0  0  0  0  0  0
   -3.6784    1.2164    5.7168 C   0  0  0  0  0  0  0  0  0  0  0  0
   -5.8247   -4.2941    7.2809 C   0  0  0  0  0  0  0  0  0  0  0  0
   -5.5849   -5.7906    7.0014 C   0  0  0  0  0  0  0  0  0  0  0  0
   -6.5926   -3.6803    6.0982 C   0  0  0  0  0  0  0  0  0  0  0  0
   -0.6498    4.4552    8.1676 C   0  0  0  0  0  0  0  0  0  0  0  0
   -1.9195    4.8355    8.9513 C   0  0  0  0  0  0  0  0  0  0  0  0
    0.5769    4.9136    8.9800 C   0  0  0  0  0  0  0  0  0  0  0  0
   -0.6383    5.1839    6.8141 C   0  0  0  0  0  0  0  0  0  0  0  0
    4.0788   -4.3411    7.9678 C   0  0  0  0  0  0  0  0  0  0  0  0
    5.2823   -3.4827    8.4023 C   0  0  0  0  0  0  0  0  0  0  0  0
    4.3697   -4.9161    6.5696 C   0  0  0  0  0  0  0  0  0  0  0  0
    3.9088   -5.4900    8.9782 C   0  0  0  0  0  0  0  0  0  0  0  0
    4.4680   -4.1152    5.8377 H   0  0  0  0  0  0  0  0  0  0  0  0
    3.5689   -5.5748    6.2374 H   0  0  0  0  0  0  0  0  0  0  0  0
    5.2954   -5.4906    6.5688 H   0  0  0  0  0  0  0  0  0  0  0  0
    6.1932   -4.0797    8.4297 H   0  0  0  0  0  0  0  0  0  0  0  0
    5.1299   -3.0689    9.3984 H   0  0  0  0  0  0  0  0  0  0  0  0
    5.4480   -2.6600    7.7077 H   0  0  0  0  0  0  0  0  0  0  0  0
    4.8195   -6.0834    9.0512 H   0  0  0  0  0  0  0  0  0  0  0  0
    3.0989   -6.1569    8.6866 H   0  0  0  0  0  0  0  0  0  0  0  0
    3.6798   -5.0994    9.9691 H   0  0  0  0  0  0  0  0  0  0  0  0
    1.5858   -5.1695    7.2700 H   0  0  0  0  0  0  0  0  0  0  0  0
    3.6342   -1.6541    8.5578 H   0  0  0  0  0  0  0  0  0  0  0  0
   -3.2141   -5.1316    6.8378 H   0  0  0  0  0  0  0  0  0  0  0  0
   -5.4511   -1.8017    8.2165 H   0  0  0  0  0  0  0  0  0  0  0  0
   -6.5306   -6.3238    6.9114 H   0  0  0  0  0  0  0  0  0  0  0  0
   -5.0188   -6.2519    7.8100 H   0  0  0  0  0  0  0  0  0  0  0  0
   -5.0379   -5.9382    6.0725 H   0  0  0  0  0  0  0  0  0  0  0  0
   -6.8118   -2.6288    6.2787 H   0  0  0  0  0  0  0  0  0  0  0  0
   -7.5365   -4.1986    5.9333 H   0  0  0  0  0  0  0  0  0  0  0  0
   -6.0069   -3.7450    5.1823 H   0  0  0  0  0  0  0  0  0  0  0  0
   -4.4083    1.0889    9.8463 H   0  0  0  0  0  0  0  0  0  0  0  0
   -5.0013   -0.5766    9.9998 H   0  0  0  0  0  0  0  0  0  0  0  0
   -5.2226    0.3287    8.4661 H   0  0  0  0  0  0  0  0  0  0  0  0
   -4.3976    0.6237    5.1506 H   0  0  0  0  0  0  0  0  0  0  0  0
   -3.2191    1.9497    5.0532 H   0  0  0  0  0  0  0  0  0  0  0  0
   -4.2026    1.7129    6.5339 H   0  0  0  0  0  0  0  0  0  0  0  0
   -2.4667    2.9611    6.8670 H   0  0  0  0  0  0  0  0  0  0  0  0
    1.2991    2.5661    8.7813 H   0  0  0  0  0  0  0  0  0  0  0  0
   -0.6227    6.2644    6.9521 H   0  0  0  0  0  0  0  0  0  0  0  0
   -1.5209    4.9356    6.2269 H   0  0  0  0  0  0  0  0  0  0  0  0
    0.2430    4.9053    6.2376 H   0  0  0  0  0  0  0  0  0  0  0  0
    0.6182    4.4089    9.9446 H   0  0  0  0  0  0  0  0  0  0  0  0
    0.5367    5.9857    9.1690 H   0  0  0  0  0  0  0  0  0  0  0  0
    1.5025    4.7101    8.4428 H   0  0  0  0  0  0  0  0  0  0  0  0
   -1.9479    5.9058    9.1523 H   0  0  0  0  0  0  0  0  0  0  0  0
   -1.9528    4.3112    9.9057 H   0  0  0  0  0  0  0  0  0  0  0  0
   -2.8203    4.5773    8.3968 H   0  0  0  0  0  0  0  0  0  0  0  0
   -6.6731   -4.1845    8.5630 C   0  0  0  0  0  0  0  0  0  0  0  0
   -7.5861   -4.7726    8.4755 H   0  0  0  0  0  0  0  0  0  0  0  0
   -6.9657   -3.1559    8.7657 H   0  0  0  0  0  0  0  0  0  0  0  0
   -6.1169   -4.5528    9.4243 H   0  0  0  0  0  0  0  0  0  0  0  0
  1  2  2  0  0  0  0
  1 64  1  0  0  0  0
  2  3  1  0  0  0  0
  2 23  1  0  0  0  0
  3  4  2  0  0  0  0
  3  7  1  0  0  0  0
  4  5  1  0  0  0  0
  5  6  2  0  0  0  0
  5 65  1  0  0  0  0
  6 31  1  0  0  0  0
  6  1  1  0  0  0  0
  7  8  1  0  0  0  0
  8  9  2  0  0  0  0
  9 10  1  0  0  0  0
 10  4  1  0  0  0  0
 10 24  2  0  0  0  0
 11 12  2  0  0  0  0
 11 18  1  0  0  0  0
 11  7  1  0  0  0  0
 12 13  1  0  0  0  0
 13 14  1  0  0  0  0
 13 25  2  0  0  0  0
 14  8  1  0  0  0  0
 14 15  2  0  0  0  0
 15 16  1  0  0  0  0
 15 48  1  0  0  0  0
 16 35  1  0  0  0  0
 16 17  2  0  0  0  0
 17  9  1  0  0  0  0
 17 49  1  0  0  0  0
 18 19  2  0  0  0  0
 19 20  1  0  0  0  0
 19 51  1  0  0  0  0
 20 28  1  0  0  0  0
 20 21  2  0  0  0  0
 21 12  1  0  0  0  0
 21 50  1  0  0  0  0
 22 26  1  0  0  0  0
 22 18  1  0  0  0  0
 23 27  1  0  0  0  0
 26 58  1  0  0  0  0
 26 59  1  0  0  0  0
 26 60  1  0  0  0  0
 27 61  1  0  0  0  0
 27 62  1  0  0  0  0
 27 63  1  0  0  0  0
 28 29  1  0  0  0  0
 28 30  1  0  0  0  0
 28 75  1  0  0  0  0
 29 52  1  0  0  0  0
 29 53  1  0  0  0  0
 29 54  1  0  0  0  0
 30 55  1  0  0  0  0
 30 56  1  0  0  0  0
 30 57  1  0  0  0  0
 31 32  1  0  0  0  0
 31 33  1  0  0  0  0
 31 34  1  0  0  0  0
 32 72  1  0  0  0  0
 32 73  1  0  0  0  0
 32 74  1  0  0  0  0
 33 69  1  0  0  0  0
 33 70  1  0  0  0  0
 33 71  1  0  0  0  0
 34 66  1  0  0  0  0
 34 67  1  0  0  0  0
 34 68  1  0  0  0  0
 35 36  1  0  0  0  0
 35 37  1  0  0  0  0
 35 38  1  0  0  0  0
 36 42  1  0  0  0  0
 36 43  1  0  0  0  0
 36 44  1  0  0  0  0
 37 39  1  0  0  0  0
 37 40  1  0  0  0  0
 37 41  1  0  0  0  0
 38 45  1  0  0  0  0
 38 46  1  0  0  0  0
 38 47  1  0  0  0  0
 75 76  1  0  0  0  0
 75 77  1  0  0  0  0
 75 78  1  0  0  0  0
 79 80  2  0  0  0  0
 79142  1  0  0  0  0
 80 81  1  0  0  0  0
 80101  1  0  0  0  0
 81 82  2  0  0  0  0
 81 85  1  0  0  0  0
 82 83  1  0  0  0  0
 83 84  2  0  0  0  0
 83143  1  0  0  0  0
 84109  1  0  0  0  0
 84 79  1  0  0  0  0
 85 86  1  0  0  0  0
 86 87  2  0  0  0  0
 87 88  1  0  0  0  0
 88 82  1  0  0  0  0
 88102  2  0  0  0  0
 89 90  2  0  0  0  0
 89 96  1  0  0  0  0
 89 85  1  0  0  0  0
 90 91  1  0  0  0  0
 91 92  1  0  0  0  0
 91103  2  0  0  0  0
 92 86  1  0  0  0  0
 92 93  2  0  0  0  0
 93 94  1  0  0  0  0
 93126  1  0  0  0  0
 94113  1  0  0  0  0
 94 95  2  0  0  0  0
 95 87  1  0  0  0  0
 95127  1  0  0  0  0
 96 97  2  0  0  0  0
 97 98  1  0  0  0  0
 97129  1  0  0  0  0
 98106  1  0  0  0  0
 98 99  2  0  0  0  0
 99 90  1  0  0  0  0
 99128  1  0  0  0  0
100104  1  0  0  0  0
100 96  1  0  0  0  0
101105  1  0  0  0  0
104136  1  0  0  0  0
104137  1  0  0  0  0
104138  1  0  0  0  0
105139  1  0  0  0  0
105140  1  0  0  0  0
105141  1  0  0  0  0
106107  1  0  0  0  0
106108  1  0  0  0  0
106153  1  0  0  0  0
107130  1  0  0  0  0
107131  1  0  0  0  0
107132  1  0  0  0  0
108133  1  0  0  0  0
108134  1  0  0  0  0
108135  1  0  0  0  0
109110  1  0  0  0  0
109111  1  0  0  0  0
109112  1  0  0  0  0
110150  1  0  0  0  0
110151  1  0  0  0  0
110152  1  0  0  0  0
111147  1  0  0  0  0
111148  1  0  0  0  0
111149  1  0  0  0  0
112144  1  0  0  0  0
112145  1  0  0  0  0
112146  1  0  0  0  0
113114  1  0  0  0  0
113115  1  0  0  0  0
113116  1  0  0  0  0
114120  1  0  0  0  0
114121  1  0  0  0  0
114122  1  0  0  0  0
115117  1  0  0  0  0
115118  1  0  0  0  0
115119  1  0  0  0  0
116123  1  0  0  0  0
116124  1  0  0  0  0
116125  1  0  0  0  0
153154  1  0  0  0  0
153155  1  0  0  0  0
153156  1  0  0  0  0
M  END
