 energy: -222.339509511385 gnorm: 0.000203466976 xtb: 6.7.1 (edcfbbe)
          03172512023D

156164  0     0  0            999 V2000
    0.2732    0.4470    3.0835 C   0  0  0  0  0  0  0  0  0  0  0  0
    0.0731   -0.7431    2.4095 C   0  0  0  0  0  0  0  0  0  0  0  0
    0.9057   -1.0915    1.3137 C   0  0  0  0  0  0  0  0  0  0  0  0
    1.7759   -0.0960    0.8300 C   0  0  0  0  0  0  0  0  0  0  0  0
    1.9561    1.0948    1.5294 C   0  0  0  0  0  0  0  0  0  0  0  0
    1.2485    1.3666    2.6869 C   0  0  0  0  0  0  0  0  0  0  0  0
    0.8324   -2.3569    0.6519 C   0  0  0  0  0  0  0  0  0  0  0  0
    1.2301   -2.4063   -0.7120 C   0  0  0  0  0  0  0  0  0  0  0  0
    2.0282   -1.3919   -1.2753 C   0  0  0  0  0  0  0  0  0  0  0  0
    2.4802   -0.2600   -0.4523 C   0  0  0  0  0  0  0  0  0  0  0  0
    0.3866   -3.5719    1.2553 C   0  0  0  0  0  0  0  0  0  0  0  0
   -0.1243   -4.6090    0.4488 C   0  0  0  0  0  0  0  0  0  0  0  0
   -0.0211   -4.5487   -1.0175 C   0  0  0  0  0  0  0  0  0  0  0  0
    0.8362   -3.4743   -1.5433 C   0  0  0  0  0  0  0  0  0  0  0  0
    1.2186   -3.4973   -2.8758 C   0  0  0  0  0  0  0  0  0  0  0  0
    2.0272   -2.5094   -3.4339 C   0  0  0  0  0  0  0  0  0  0  0  0
    2.4271   -1.4683   -2.6054 C   0  0  0  0  0  0  0  0  0  0  0  0
    0.4945   -3.8363    2.6474 C   0  0  0  0  0  0  0  0  0  0  0  0
   -0.1077   -4.9580    3.1868 C   0  0  0  0  0  0  0  0  0  0  0  0
   -0.7651   -5.9006    2.3934 C   0  0  0  0  0  0  0  0  0  0  0  0
   -0.7051   -5.7380    1.0192 C   0  0  0  0  0  0  0  0  0  0  0  0
    1.2549   -2.9744    3.3714 O   0  0  0  0  0  0  0  0  0  0  0  0
   -0.9487   -1.5936    2.6790 O   0  0  0  0  0  0  0  0  0  0  0  0
    3.3340    0.5295   -0.8371 O   0  0  0  0  0  0  0  0  0  0  0  0
   -0.5573   -5.3711   -1.7494 O   0  0  0  0  0  0  0  0  0  0  0  0
    1.5825   -3.3103    4.6973 C   0  0  0  0  0  0  0  0  0  0  0  0
   -1.6929   -1.4217    3.8559 C   0  0  0  0  0  0  0  0  0  0  0  0
   -1.4889   -7.0513    3.0684 C   0  0  0  0  0  0  0  0  0  0  0  0
   -2.1011   -8.0241    2.0578 C   0  0  0  0  0  0  0  0  0  0  0  0
   -2.6157   -6.4657    3.9325 C   0  0  0  0  0  0  0  0  0  0  0  0
    1.4299    2.6440    3.4890 C   0  0  0  0  0  0  0  0  0  0  0  0
    1.6840    2.2966    4.9628 C   0  0  0  0  0  0  0  0  0  0  0  0
    2.6056    3.4839    2.9839 C   0  0  0  0  0  0  0  0  0  0  0  0
    0.1478    3.4796    3.3680 C   0  0  0  0  0  0  0  0  0  0  0  0
    2.4282   -2.6089   -4.8951 C   0  0  0  0  0  0  0  0  0  0  0  0
    3.3165   -1.4444   -5.3396 C   0  0  0  0  0  0  0  0  0  0  0  0
    1.1587   -2.6081   -5.7587 C   0  0  0  0  0  0  0  0  0  0  0  0
    3.2012   -3.9180   -5.1091 C   0  0  0  0  0  0  0  0  0  0  0  0
    0.5947   -1.6917   -5.5972 H   0  0  0  0  0  0  0  0  0  0  0  0
    0.5161   -3.4505   -5.5190 H   0  0  0  0  0  0  0  0  0  0  0  0
    1.4237   -2.6692   -6.8121 H   0  0  0  0  0  0  0  0  0  0  0  0
    3.5739   -1.5653   -6.3900 H   0  0  0  0  0  0  0  0  0  0  0  0
    4.2408   -1.4169   -4.7676 H   0  0  0  0  0  0  0  0  0  0  0  0
    2.8009   -0.4937   -5.2270 H   0  0  0  0  0  0  0  0  0  0  0  0
    3.5071   -4.0052   -6.1495 H   0  0  0  0  0  0  0  0  0  0  0  0
    2.5926   -4.7824   -4.8589 H   0  0  0  0  0  0  0  0  0  0  0  0
    4.0921   -3.9348   -4.4846 H   0  0  0  0  0  0  0  0  0  0  0  0
    0.8615   -4.3279   -3.4666 H   0  0  0  0  0  0  0  0  0  0  0  0
    3.0610   -0.6714   -2.9610 H   0  0  0  0  0  0  0  0  0  0  0  0
   -1.1060   -6.4689    0.3362 H   0  0  0  0  0  0  0  0  0  0  0  0
   -0.0882   -5.1011    4.2541 H   0  0  0  0  0  0  0  0  0  0  0  0
   -2.6224   -8.8191    2.5877 H   0  0  0  0  0  0  0  0  0  0  0  0
   -1.3314   -8.4793    1.4392 H   0  0  0  0  0  0  0  0  0  0  0  0
   -2.8191   -7.5201    1.4156 H   0  0  0  0  0  0  0  0  0  0  0  0
   -2.2201   -5.8037    4.6976 H   0  0  0  0  0  0  0  0  0  0  0  0
   -3.1659   -7.2674    4.4212 H   0  0  0  0  0  0  0  0  0  0  0  0
   -3.3074   -5.9022    3.3087 H   0  0  0  0  0  0  0  0  0  0  0  0
    2.2091   -2.4965    5.0607 H   0  0  0  0  0  0  0  0  0  0  0  0
    2.1435   -4.2498    4.7397 H   0  0  0  0  0  0  0  0  0  0  0  0
    0.6967   -3.3918    5.3301 H   0  0  0  0  0  0  0  0  0  0  0  0
   -2.3337   -2.2992    3.9294 H   0  0  0  0  0  0  0  0  0  0  0  0
   -2.3149   -0.5219    3.8269 H   0  0  0  0  0  0  0  0  0  0  0  0
   -1.0438   -1.3750    4.7353 H   0  0  0  0  0  0  0  0  0  0  0  0
   -0.3538    0.6783    3.9296 H   0  0  0  0  0  0  0  0  0  0  0  0
    2.6677    1.7901    1.1155 H   0  0  0  0  0  0  0  0  0  0  0  0
    0.2775    4.4383    3.8639 H   0  0  0  0  0  0  0  0  0  0  0  0
   -0.6910    2.9654    3.8287 H   0  0  0  0  0  0  0  0  0  0  0  0
   -0.0875    3.6590    2.3207 H   0  0  0  0  0  0  0  0  0  0  0  0
    3.5283    2.9099    3.0038 H   0  0  0  0  0  0  0  0  0  0  0  0
    2.7332    4.3548    3.6239 H   0  0  0  0  0  0  0  0  0  0  0  0
    2.4295    3.8353    1.9705 H   0  0  0  0  0  0  0  0  0  0  0  0
    1.8276    3.2053    5.5437 H   0  0  0  0  0  0  0  0  0  0  0  0
    2.5785    1.6848    5.0550 H   0  0  0  0  0  0  0  0  0  0  0  0
    0.8517    1.7525    5.4012 H   0  0  0  0  0  0  0  0  0  0  0  0
   -0.5093   -7.8304    3.9574 C   0  0  0  0  0  0  0  0  0  0  0  0
   -1.0037   -8.7037    4.3775 H   0  0  0  0  0  0  0  0  0  0  0  0
   -0.1511   -7.2192    4.7806 H   0  0  0  0  0  0  0  0  0  0  0  0
    0.3465   -8.1654    3.3746 H   0  0  0  0  0  0  0  0  0  0  0  0
   -1.8780    3.3093    6.6051 C   0  0  0  0  0  0  0  0  0  0  0  0
   -2.0454    1.9403    6.5055 C   0  0  0  0  0  0  0  0  0  0  0  0
   -1.3497    1.0700    7.3872 C   0  0  0  0  0  0  0  0  0  0  0  0
   -0.3460    1.6520    8.1882 C   0  0  0  0  0  0  0  0  0  0  0  0
   -0.2006    3.0328    8.2665 C   0  0  0  0  0  0  0  0  0  0  0  0
   -0.9965    3.8866    7.5232 C   0  0  0  0  0  0  0  0  0  0  0  0
   -1.5719   -0.3421    7.4485 C   0  0  0  0  0  0  0  0  0  0  0  0
   -0.4950   -1.1554    7.9033 C   0  0  0  0  0  0  0  0  0  0  0  0
    0.5808   -0.6110    8.6299 C   0  0  0  0  0  0  0  0  0  0  0  0
    0.6037    0.8237    8.9504 C   0  0  0  0  0  0  0  0  0  0  0  0
   -2.7947   -1.0058    7.1153 C   0  0  0  0  0  0  0  0  0  0  0  0
   -2.7742   -2.3678    6.7497 C   0  0  0  0  0  0  0  0  0  0  0  0
   -1.5423   -3.1587    6.8569 C   0  0  0  0  0  0  0  0  0  0  0  0
   -0.4728   -2.5417    7.6492 C   0  0  0  0  0  0  0  0  0  0  0  0
    0.5821   -3.3223    8.1004 C   0  0  0  0  0  0  0  0  0  0  0  0
    1.6359   -2.7914    8.8389 C   0  0  0  0  0  0  0  0  0  0  0  0
    1.6062   -1.4258    9.0956 C   0  0  0  0  0  0  0  0  0  0  0  0
   -4.0728   -0.3937    7.2165 C   0  0  0  0  0  0  0  0  0  0  0  0
   -5.1978   -1.0627    6.7693 C   0  0  0  0  0  0  0  0  0  0  0  0
   -5.1418   -2.3608    6.2554 C   0  0  0  0  0  0  0  0  0  0  0  0
   -3.9229   -3.0133    6.3027 C   0  0  0  0  0  0  0  0  0  0  0  0
   -4.1169    0.8213    7.8210 O   0  0  0  0  0  0  0  0  0  0  0  0
   -2.8034    1.3457    5.5440 O   0  0  0  0  0  0  0  0  0  0  0  0
    1.3944    1.3025    9.7508 O   0  0  0  0  0  0  0  0  0  0  0  0
   -1.4216   -4.2731    6.3570 O   0  0  0  0  0  0  0  0  0  0  0  0
   -5.3620    1.4143    8.0908 C   0  0  0  0  0  0  0  0  0  0  0  0
   -3.6128    2.1393    4.7115 C   0  0  0  0  0  0  0  0  0  0  0  0
   -6.4037   -3.0017    5.7069 C   0  0  0  0  0  0  0  0  0  0  0  0
   -6.1470   -4.4061    5.1551 C   0  0  0  0  0  0  0  0  0  0  0  0
   -6.9439   -2.1292    4.5640 C   0  0  0  0  0  0  0  0  0  0  0  0
   -0.9308    5.3980    7.6507 C   0  0  0  0  0  0  0  0  0  0  0  0
   -2.3283    5.9223    8.0126 C   0  0  0  0  0  0  0  0  0  0  0  0
    0.0447    5.8448    8.7425 C   0  0  0  0  0  0  0  0  0  0  0  0
   -0.4753    6.0091    6.3187 C   0  0  0  0  0  0  0  0  0  0  0  0
    2.7443   -3.7062    9.3266 C   0  0  0  0  0  0  0  0  0  0  0  0
    3.8260   -2.9515   10.1024 C   0  0  0  0  0  0  0  0  0  0  0  0
    3.3994   -4.3851    8.1149 C   0  0  0  0  0  0  0  0  0  0  0  0
    2.1343   -4.7697   10.2511 C   0  0  0  0  0  0  0  0  0  0  0  0
    3.8080   -3.6376    7.4382 H   0  0  0  0  0  0  0  0  0  0  0  0
    2.6852   -4.9903    7.5639 H   0  0  0  0  0  0  0  0  0  0  0  0
    4.2096   -5.0312    8.4449 H   0  0  0  0  0  0  0  0  0  0  0  0
    4.5950   -3.6506   10.4241 H   0  0  0  0  0  0  0  0  0  0  0  0
    3.4130   -2.4761   10.9887 H   0  0  0  0  0  0  0  0  0  0  0  0
    4.2982   -2.1952    9.4801 H   0  0  0  0  0  0  0  0  0  0  0  0
    2.9132   -5.4329   10.6203 H   0  0  0  0  0  0  0  0  0  0  0  0
    1.3937   -5.3704    9.7305 H   0  0  0  0  0  0  0  0  0  0  0  0
    1.6524   -4.2956   11.1035 H   0  0  0  0  0  0  0  0  0  0  0  0
    0.5454   -4.3750    7.8615 H   0  0  0  0  0  0  0  0  0  0  0  0
    2.3788   -0.9399    9.6701 H   0  0  0  0  0  0  0  0  0  0  0  0
   -3.8145   -4.0428    6.0041 H   0  0  0  0  0  0  0  0  0  0  0  0
   -6.1540   -0.5681    6.8218 H   0  0  0  0  0  0  0  0  0  0  0  0
   -7.0699   -4.8080    4.7426 H   0  0  0  0  0  0  0  0  0  0  0  0
   -5.8086   -5.0796    5.9382 H   0  0  0  0  0  0  0  0  0  0  0  0
   -5.4045   -4.3833    4.3615 H   0  0  0  0  0  0  0  0  0  0  0  0
   -7.2061   -1.1328    4.9098 H   0  0  0  0  0  0  0  0  0  0  0  0
   -7.8348   -2.5844    4.1377 H   0  0  0  0  0  0  0  0  0  0  0  0
   -6.1963   -2.0344    3.7794 H   0  0  0  0  0  0  0  0  0  0  0  0
   -5.1350    2.3348    8.6272 H   0  0  0  0  0  0  0  0  0  0  0  0
   -5.9854    0.7731    8.7222 H   0  0  0  0  0  0  0  0  0  0  0  0
   -5.9064    1.6578    7.1719 H   0  0  0  0  0  0  0  0  0  0  0  0
   -4.1963    1.4383    4.1150 H   0  0  0  0  0  0  0  0  0  0  0  0
   -3.0169    2.7682    4.0413 H   0  0  0  0  0  0  0  0  0  0  0  0
   -4.2911    2.7714    5.2927 H   0  0  0  0  0  0  0  0  0  0  0  0
   -2.4394    3.9546    5.9491 H   0  0  0  0  0  0  0  0  0  0  0  0
    0.5616    3.3956    8.9359 H   0  0  0  0  0  0  0  0  0  0  0  0
   -0.4133    7.0914    6.4080 H   0  0  0  0  0  0  0  0  0  0  0  0
   -1.1668    5.7745    5.5139 H   0  0  0  0  0  0  0  0  0  0  0  0
    0.5086    5.6300    6.0517 H   0  0  0  0  0  0  0  0  0  0  0  0
   -0.2338    5.4302    9.7080 H   0  0  0  0  0  0  0  0  0  0  0  0
    0.0276    6.9297    8.8223 H   0  0  0  0  0  0  0  0  0  0  0  0
    1.0620    5.5425    8.5073 H   0  0  0  0  0  0  0  0  0  0  0  0
   -2.2983    7.0015    8.1443 H   0  0  0  0  0  0  0  0  0  0  0  0
   -2.6685    5.4711    8.9423 H   0  0  0  0  0  0  0  0  0  0  0  0
   -3.0543    5.6969    7.2361 H   0  0  0  0  0  0  0  0  0  0  0  0
   -7.4510   -3.1044    6.8249 C   0  0  0  0  0  0  0  0  0  0  0  0
   -8.3464   -3.5955    6.4510 H   0  0  0  0  0  0  0  0  0  0  0  0
   -7.7343   -2.1245    7.1997 H   0  0  0  0  0  0  0  0  0  0  0  0
   -7.0585   -3.6881    7.6547 H   0  0  0  0  0  0  0  0  0  0  0  0
  1  2  2  0  0  0  0
  1 64  1  0  0  0  0
  2  3  1  0  0  0  0
  2 23  1  0  0  0  0
  3  4  2  0  0  0  0
  3  7  1  0  0  0  0
  4  5  1  0  0  0  0
  5  6  2  0  0  0  0
  5 65  1  0  0  0  0
  6 31  1  0  0  0  0
  6  1  1  0  0  0  0
  7  8  1  0  0  0  0
  8  9  2  0  0  0  0
  9 10  1  0  0  0  0
 10  4  1  0  0  0  0
 10 24  2  0  0  0  0
 11 12  2  0  0  0  0
 11 18  1  0  0  0  0
 11  7  1  0  0  0  0
 12 13  1  0  0  0  0
 13 14  1  0  0  0  0
 13 25  2  0  0  0  0
 14  8  1  0  0  0  0
 14 15  2  0  0  0  0
 15 16  1  0  0  0  0
 15 48  1  0  0  0  0
 16 35  1  0  0  0  0
 16 17  2  0  0  0  0
 17  9  1  0  0  0  0
 17 49  1  0  0  0  0
 18 19  2  0  0  0  0
 19 20  1  0  0  0  0
 19 51  1  0  0  0  0
 20 28  1  0  0  0  0
 20 21  2  0  0  0  0
 21 12  1  0  0  0  0
 21 50  1  0  0  0  0
 22 26  1  0  0  0  0
 22 18  1  0  0  0  0
 23 27  1  0  0  0  0
 26 58  1  0  0  0  0
 26 59  1  0  0  0  0
 26 60  1  0  0  0  0
 27 61  1  0  0  0  0
 27 62  1  0  0  0  0
 27 63  1  0  0  0  0
 28 29  1  0  0  0  0
 28 30  1  0  0  0  0
 28 75  1  0  0  0  0
 29 52  1  0  0  0  0
 29 53  1  0  0  0  0
 29 54  1  0  0  0  0
 30 55  1  0  0  0  0
 30 56  1  0  0  0  0
 30 57  1  0  0  0  0
 31 32  1  0  0  0  0
 31 33  1  0  0  0  0
 31 34  1  0  0  0  0
 32 72  1  0  0  0  0
 32 73  1  0  0  0  0
 32 74  1  0  0  0  0
 33 69  1  0  0  0  0
 33 70  1  0  0  0  0
 33 71  1  0  0  0  0
 34 66  1  0  0  0  0
 34 67  1  0  0  0  0
 34 68  1  0  0  0  0
 35 36  1  0  0  0  0
 35 37  1  0  0  0  0
 35 38  1  0  0  0  0
 36 42  1  0  0  0  0
 36 43  1  0  0  0  0
 36 44  1  0  0  0  0
 37 39  1  0  0  0  0
 37 40  1  0  0  0  0
 37 41  1  0  0  0  0
 38 45  1  0  0  0  0
 38 46  1  0  0  0  0
 38 47  1  0  0  0  0
 75 76  1  0  0  0  0
 75 77  1  0  0  0  0
 75 78  1  0  0  0  0
 79 80  2  0  0  0  0
 79142  1  0  0  0  0
 80 81  1  0  0  0  0
 80101  1  0  0  0  0
 81 82  2  0  0  0  0
 81 85  1  0  0  0  0
 82 83  1  0  0  0  0
 83 84  2  0  0  0  0
 83143  1  0  0  0  0
 84109  1  0  0  0  0
 84 79  1  0  0  0  0
 85 86  1  0  0  0  0
 86 87  2  0  0  0  0
 87 88  1  0  0  0  0
 88 82  1  0  0  0  0
 88102  2  0  0  0  0
 89 90  2  0  0  0  0
 89 96  1  0  0  0  0
 89 85  1  0  0  0  0
 90 91  1  0  0  0  0
 91 92  1  0  0  0  0
 91103  2  0  0  0  0
 92 86  1  0  0  0  0
 92 93  2  0  0  0  0
 93 94  1  0  0  0  0
 93126  1  0  0  0  0
 94113  1  0  0  0  0
 94 95  2  0  0  0  0
 95 87  1  0  0  0  0
 95127  1  0  0  0  0
 96 97  2  0  0  0  0
 97 98  1  0  0  0  0
 97129  1  0  0  0  0
 98106  1  0  0  0  0
 98 99  2  0  0  0  0
 99 90  1  0  0  0  0
 99128  1  0  0  0  0
100104  1  0  0  0  0
100 96  1  0  0  0  0
101105  1  0  0  0  0
104136  1  0  0  0  0
104137  1  0  0  0  0
104138  1  0  0  0  0
105139  1  0  0  0  0
105140  1  0  0  0  0
105141  1  0  0  0  0
106107  1  0  0  0  0
106108  1  0  0  0  0
106153  1  0  0  0  0
107130  1  0  0  0  0
107131  1  0  0  0  0
107132  1  0  0  0  0
108133  1  0  0  0  0
108134  1  0  0  0  0
108135  1  0  0  0  0
109110  1  0  0  0  0
109111  1  0  0  0  0
109112  1  0  0  0  0
110150  1  0  0  0  0
110151  1  0  0  0  0
110152  1  0  0  0  0
111147  1  0  0  0  0
111148  1  0  0  0  0
111149  1  0  0  0  0
112144  1  0  0  0  0
112145  1  0  0  0  0
112146  1  0  0  0  0
113114  1  0  0  0  0
113115  1  0  0  0  0
113116  1  0  0  0  0
114120  1  0  0  0  0
114121  1  0  0  0  0
114122  1  0  0  0  0
115117  1  0  0  0  0
115118  1  0  0  0  0
115119  1  0  0  0  0
116123  1  0  0  0  0
116124  1  0  0  0  0
116125  1  0  0  0  0
153154  1  0  0  0  0
153155  1  0  0  0  0
153156  1  0  0  0  0
M  END
