 energy: -93.483859719472 gnorm: 0.000164175568 xtb: 6.7.1 (edcfbbe)
          03102511103D

 67 72  0     0  0            999 V2000
   -1.0574    1.8867    0.0430 C   0  0  0  0  0  0  0  0  0  0  0  0
   -1.0825    0.5063    0.0476 C   0  0  0  0  0  0  0  0  0  0  0  0
    0.1237   -0.1980    0.0876 C   0  0  0  0  0  0  0  0  0  0  0  0
    1.3908    0.4431    0.1240 C   0  0  0  0  0  0  0  0  0  0  0  0
    1.3613    1.8568    0.1191 C   0  0  0  0  0  0  0  0  0  0  0  0
    0.1770    2.5615    0.0794 C   0  0  0  0  0  0  0  0  0  0  0  0
    0.0983   -1.6014    0.0915 C   0  0  0  0  0  0  0  0  0  0  0  0
    1.2815   -2.3182    0.1283 C   0  0  0  0  0  0  0  0  0  0  0  0
    2.5062   -1.5910    0.1612 C   0  0  0  0  0  0  0  0  0  0  0  0
    2.5416   -0.2375    0.1598 N   0  0  0  0  0  0  0  0  0  0  0  0
   -1.1328   -2.2747    0.0559 C   0  0  0  0  0  0  0  0  0  0  0  0
   -1.1129   -3.6948    0.0610 C   0  0  0  0  0  0  0  0  0  0  0  0
    0.0243   -4.3986    0.0966 N   0  0  0  0  0  0  0  0  0  0  0  0
    1.2059   -3.7398    0.1286 C   0  0  0  0  0  0  0  0  0  0  0  0
    2.4253   -4.4310    0.1616 C   0  0  0  0  0  0  0  0  0  0  0  0
    3.6357   -3.7491    0.1918 C   0  0  0  0  0  0  0  0  0  0  0  0
    3.6770   -2.3557    0.1932 C   0  0  0  0  0  0  0  0  0  0  0  0
   -2.3161   -1.5324    0.0162 C   0  0  0  0  0  0  0  0  0  0  0  0
   -3.5266   -2.1954   -0.0203 C   0  0  0  0  0  0  0  0  0  0  0  0
   -3.5514   -3.6024   -0.0160 C   0  0  0  0  0  0  0  0  0  0  0  0
   -2.3779   -4.3250    0.0246 C   0  0  0  0  0  0  0  0  0  0  0  0
    0.2391    4.0873    0.0779 C   0  0  0  0  0  0  0  0  0  0  0  0
   -4.8735   -4.3657   -0.0543 C   0  0  0  0  0  0  0  0  0  0  0  0
    4.9685   -4.4957    0.2220 C   0  0  0  0  0  0  0  0  0  0  0  0
   -6.0998   -3.4497   -0.1122 C   0  0  0  0  0  0  0  0  0  0  0  0
   -4.9906   -5.2295    1.2093 C   0  0  0  0  0  0  0  0  0  0  0  0
   -4.9006   -5.2647   -1.2984 C   0  0  0  0  0  0  0  0  0  0  0  0
    5.7908   -4.1076   -1.0150 C   0  0  0  0  0  0  0  0  0  0  0  0
    5.7356   -4.1093    1.4944 C   0  0  0  0  0  0  0  0  0  0  0  0
    4.8090   -6.0191    0.2173 C   0  0  0  0  0  0  0  0  0  0  0  0
   -1.1411    4.7494    0.0240 C   0  0  0  0  0  0  0  0  0  0  0  0
    0.9385    4.5621    1.3594 C   0  0  0  0  0  0  0  0  0  0  0  0
    1.0333    4.5582   -1.1486 C   0  0  0  0  0  0  0  0  0  0  0  0
    2.3138    2.3640    0.1477 H   0  0  0  0  0  0  0  0  0  0  0  0
   -1.9953    2.4143    0.0114 H   0  0  0  0  0  0  0  0  0  0  0  0
    4.6165   -1.8242    0.2175 H   0  0  0  0  0  0  0  0  0  0  0  0
    2.3771   -5.5071    0.1610 H   0  0  0  0  0  0  0  0  0  0  0  0
   -2.3847   -5.4044    0.0293 H   0  0  0  0  0  0  0  0  0  0  0  0
   -4.4290   -1.6091   -0.0514 H   0  0  0  0  0  0  0  0  0  0  0  0
    0.5471    4.2169   -2.0604 H   0  0  0  0  0  0  0  0  0  0  0  0
    1.0910    5.6464   -1.1714 H   0  0  0  0  0  0  0  0  0  0  0  0
    2.0435    4.1598   -1.1353 H   0  0  0  0  0  0  0  0  0  0  0  0
    0.9982    5.6502    1.3815 H   0  0  0  0  0  0  0  0  0  0  0  0
    1.9451    4.1600    1.4252 H   0  0  0  0  0  0  0  0  0  0  0  0
    0.3826    4.2269    2.2328 H   0  0  0  0  0  0  0  0  0  0  0  0
   -1.7396    4.4746    0.8895 H   0  0  0  0  0  0  0  0  0  0  0  0
   -1.0259    5.8333    0.0231 H   0  0  0  0  0  0  0  0  0  0  0  0
   -1.6744    4.4659   -0.8803 H   0  0  0  0  0  0  0  0  0  0  0  0
    5.9767   -3.0379   -1.0404 H   0  0  0  0  0  0  0  0  0  0  0  0
    5.2496   -4.3782   -1.9196 H   0  0  0  0  0  0  0  0  0  0  0  0
    6.7503   -4.6256   -1.0155 H   0  0  0  0  0  0  0  0  0  0  0  0
    4.2923   -6.3528   -0.6794 H   0  0  0  0  0  0  0  0  0  0  0  0
    5.7923   -6.4904    0.2387 H   0  0  0  0  0  0  0  0  0  0  0  0
    4.2529   -6.3544    1.0894 H   0  0  0  0  0  0  0  0  0  0  0  0
    5.9230   -3.0400    1.5276 H   0  0  0  0  0  0  0  0  0  0  0  0
    6.6930   -4.6296    1.5374 H   0  0  0  0  0  0  0  0  0  0  0  0
    5.1542   -4.3783    2.3742 H   0  0  0  0  0  0  0  0  0  0  0  0
   -4.8062   -4.6590   -2.1976 H   0  0  0  0  0  0  0  0  0  0  0  0
   -4.0806   -5.9764   -1.2833 H   0  0  0  0  0  0  0  0  0  0  0  0
   -5.8380   -5.8185   -1.3489 H   0  0  0  0  0  0  0  0  0  0  0  0
   -5.9247   -5.7913    1.2029 H   0  0  0  0  0  0  0  0  0  0  0  0
   -4.9713   -4.5977    2.0952 H   0  0  0  0  0  0  0  0  0  0  0  0
   -4.1655   -5.9323    1.2780 H   0  0  0  0  0  0  0  0  0  0  0  0
   -6.1497   -2.8084    0.7646 H   0  0  0  0  0  0  0  0  0  0  0  0
   -6.0806   -2.8290   -1.0050 H   0  0  0  0  0  0  0  0  0  0  0  0
   -7.0060   -4.0549   -0.1402 H   0  0  0  0  0  0  0  0  0  0  0  0
   -2.2926   -0.1540    0.0125 O   0  0  0  0  0  0  0  0  0  0  0  0
  1  2  2  0  0  0  0
  1 35  1  0  0  0  0
  2  3  1  0  0  0  0
  3  4  2  0  0  0  0
  3  7  1  0  0  0  0
  4  5  1  0  0  0  0
  5  6  2  0  0  0  0
  5 34  1  0  0  0  0
  6  1  1  0  0  0  0
  6 22  1  0  0  0  0
  7 11  2  0  0  0  0
  8  7  1  0  0  0  0
  8  9  1  0  0  0  0
  9 10  2  0  0  0  0
 10  4  1  0  0  0  0
 11 12  1  0  0  0  0
 11 18  1  0  0  0  0
 12 13  2  0  0  0  0
 13 14  1  0  0  0  0
 14  8  1  0  0  0  0
 14 15  2  0  0  0  0
 15 16  1  0  0  0  0
 15 37  1  0  0  0  0
 16 17  2  0  0  0  0
 16 24  1  0  0  0  0
 17  9  1  0  0  0  0
 17 36  1  0  0  0  0
 18 19  2  0  0  0  0
 19 20  1  0  0  0  0
 19 39  1  0  0  0  0
 20 21  2  0  0  0  0
 20 23  1  0  0  0  0
 21 12  1  0  0  0  0
 21 38  1  0  0  0  0
 22 31  1  0  0  0  0
 22 32  1  0  0  0  0
 22 33  1  0  0  0  0
 23 25  1  0  0  0  0
 23 26  1  0  0  0  0
 23 27  1  0  0  0  0
 24 28  1  0  0  0  0
 24 29  1  0  0  0  0
 24 30  1  0  0  0  0
 25 64  1  0  0  0  0
 25 65  1  0  0  0  0
 25 66  1  0  0  0  0
 26 61  1  0  0  0  0
 26 62  1  0  0  0  0
 26 63  1  0  0  0  0
 27 58  1  0  0  0  0
 27 59  1  0  0  0  0
 27 60  1  0  0  0  0
 28 49  1  0  0  0  0
 28 50  1  0  0  0  0
 28 51  1  0  0  0  0
 29 55  1  0  0  0  0
 29 56  1  0  0  0  0
 29 57  1  0  0  0  0
 30 52  1  0  0  0  0
 30 53  1  0  0  0  0
 30 54  1  0  0  0  0
 31 46  1  0  0  0  0
 31 47  1  0  0  0  0
 31 48  1  0  0  0  0
 32 43  1  0  0  0  0
 32 44  1  0  0  0  0
 32 45  1  0  0  0  0
 33 40  1  0  0  0  0
 33 41  1  0  0  0  0
 33 42  1  0  0  0  0
 18 67  1  0  0  0  0
 67  2  1  0  0  0  0
M  CHG  1   1  -1
M  END
