 energy: -92.800621516808 gnorm: 0.000119424897 xtb: 6.7.1 (edcfbbe)
          03102511113D

 67 72  0     0  0            999 V2000
   -1.0450    1.8957    0.0420 C   0  0  0  0  0  0  0  0  0  0  0  0
   -1.0959    0.5081    0.0466 C   0  0  0  0  0  0  0  0  0  0  0  0
    0.1095   -0.1942    0.0863 C   0  0  0  0  0  0  0  0  0  0  0  0
    1.3853    0.4550    0.1211 C   0  0  0  0  0  0  0  0  0  0  0  0
    1.3781    1.8643    0.1159 C   0  0  0  0  0  0  0  0  0  0  0  0
    0.1874    2.5754    0.0773 C   0  0  0  0  0  0  0  0  0  0  0  0
    0.0862   -1.5937    0.0921 C   0  0  0  0  0  0  0  0  0  0  0  0
    1.2702   -2.3106    0.1289 C   0  0  0  0  0  0  0  0  0  0  0  0
    2.4890   -1.5870    0.1597 C   0  0  0  0  0  0  0  0  0  0  0  0
    2.5195   -0.2499    0.1563 N   0  0  0  0  0  0  0  0  0  0  0  0
   -1.1427   -2.2635    0.0581 C   0  0  0  0  0  0  0  0  0  0  0  0
   -1.1252   -3.6945    0.0649 C   0  0  0  0  0  0  0  0  0  0  0  0
    0.0262   -4.3723    0.1008 N   0  0  0  0  0  0  0  0  0  0  0  0
    1.1957   -3.7261    0.1309 C   0  0  0  0  0  0  0  0  0  0  0  0
    2.4258   -4.4263    0.1638 C   0  0  0  0  0  0  0  0  0  0  0  0
    3.6480   -3.7532    0.1925 C   0  0  0  0  0  0  0  0  0  0  0  0
    3.6750   -2.3544    0.1922 C   0  0  0  0  0  0  0  0  0  0  0  0
   -2.3237   -1.5213    0.0179 C   0  0  0  0  0  0  0  0  0  0  0  0
   -3.5290   -2.2102   -0.0183 C   0  0  0  0  0  0  0  0  0  0  0  0
   -3.5585   -3.6174   -0.0133 C   0  0  0  0  0  0  0  0  0  0  0  0
   -2.3759   -4.3424    0.0296 C   0  0  0  0  0  0  0  0  0  0  0  0
    0.2452    4.0945    0.0762 C   0  0  0  0  0  0  0  0  0  0  0  0
   -4.8762   -4.3744   -0.0538 C   0  0  0  0  0  0  0  0  0  0  0  0
    4.9723   -4.4997    0.2225 C   0  0  0  0  0  0  0  0  0  0  0  0
   -6.0949   -3.4507   -0.1164 C   0  0  0  0  0  0  0  0  0  0  0  0
   -4.9869   -5.2341    1.2144 C   0  0  0  0  0  0  0  0  0  0  0  0
   -4.8895   -5.2737   -1.2990 C   0  0  0  0  0  0  0  0  0  0  0  0
    5.7837   -4.1066   -1.0211 C   0  0  0  0  0  0  0  0  0  0  0  0
    5.7333   -4.1007    1.4956 C   0  0  0  0  0  0  0  0  0  0  0  0
    4.7918   -6.0192    0.2224 C   0  0  0  0  0  0  0  0  0  0  0  0
   -1.1388    4.7457    0.0243 C   0  0  0  0  0  0  0  0  0  0  0  0
    0.9488    4.5586    1.3605 C   0  0  0  0  0  0  0  0  0  0  0  0
    1.0414    4.5568   -1.1534 C   0  0  0  0  0  0  0  0  0  0  0  0
    2.3308    2.3655    0.1429 H   0  0  0  0  0  0  0  0  0  0  0  0
   -1.9746    2.4373    0.0108 H   0  0  0  0  0  0  0  0  0  0  0  0
    4.6109   -1.8182    0.2157 H   0  0  0  0  0  0  0  0  0  0  0  0
    2.3790   -5.5030    0.1647 H   0  0  0  0  0  0  0  0  0  0  0  0
   -2.3776   -5.4193    0.0358 H   0  0  0  0  0  0  0  0  0  0  0  0
   -4.4398   -1.6379   -0.0507 H   0  0  0  0  0  0  0  0  0  0  0  0
    0.5682    4.2039   -2.0670 H   0  0  0  0  0  0  0  0  0  0  0  0
    1.0710    5.6425   -1.1814 H   0  0  0  0  0  0  0  0  0  0  0  0
    2.0639    4.1919   -1.1326 H   0  0  0  0  0  0  0  0  0  0  0  0
    0.9790    5.6443    1.3879 H   0  0  0  0  0  0  0  0  0  0  0  0
    1.9689    4.1907    1.4164 H   0  0  0  0  0  0  0  0  0  0  0  0
    0.4081    4.2091    2.2372 H   0  0  0  0  0  0  0  0  0  0  0  0
   -1.7367    4.4780    0.8922 H   0  0  0  0  0  0  0  0  0  0  0  0
   -1.0225    5.8263    0.0258 H   0  0  0  0  0  0  0  0  0  0  0  0
   -1.6719    4.4732   -0.8835 H   0  0  0  0  0  0  0  0  0  0  0  0
    6.0043   -3.0433   -1.0434 H   0  0  0  0  0  0  0  0  0  0  0  0
    5.2405   -4.3649   -1.9276 H   0  0  0  0  0  0  0  0  0  0  0  0
    6.7273   -4.6451   -1.0244 H   0  0  0  0  0  0  0  0  0  0  0  0
    4.2808   -6.3584   -0.6756 H   0  0  0  0  0  0  0  0  0  0  0  0
    5.7697   -6.4929    0.2433 H   0  0  0  0  0  0  0  0  0  0  0  0
    4.2446   -6.3540    1.1005 H   0  0  0  0  0  0  0  0  0  0  0  0
    5.9608   -3.0388    1.5176 H   0  0  0  0  0  0  0  0  0  0  0  0
    6.6720   -4.6456    1.5434 H   0  0  0  0  0  0  0  0  0  0  0  0
    5.1506   -4.3469    2.3805 H   0  0  0  0  0  0  0  0  0  0  0  0
   -4.7743   -4.6759   -2.2004 H   0  0  0  0  0  0  0  0  0  0  0  0
   -4.0940   -6.0122   -1.2722 H   0  0  0  0  0  0  0  0  0  0  0  0
   -5.8375   -5.8012   -1.3578 H   0  0  0  0  0  0  0  0  0  0  0  0
   -5.9324   -5.7695    1.2107 H   0  0  0  0  0  0  0  0  0  0  0  0
   -4.9521   -4.6071    2.1025 H   0  0  0  0  0  0  0  0  0  0  0  0
   -4.1854   -5.9641    1.2773 H   0  0  0  0  0  0  0  0  0  0  0  0
   -6.1563   -2.8133    0.7624 H   0  0  0  0  0  0  0  0  0  0  0  0
   -6.0804   -2.8350   -1.0127 H   0  0  0  0  0  0  0  0  0  0  0  0
   -6.9972   -4.0558   -0.1472 H   0  0  0  0  0  0  0  0  0  0  0  0
   -2.2922   -0.1540    0.0130 O   0  0  0  0  0  0  0  0  0  0  0  0
  1  2  2  0  0  0  0
  1 35  1  0  0  0  0
  2  3  1  0  0  0  0
  3  4  2  0  0  0  0
  3  7  1  0  0  0  0
  4  5  1  0  0  0  0
  5  6  2  0  0  0  0
  5 34  1  0  0  0  0
  6  1  1  0  0  0  0
  6 22  1  0  0  0  0
  7 11  2  0  0  0  0
  8  7  1  0  0  0  0
  8  9  1  0  0  0  0
  9 10  2  0  0  0  0
 10  4  1  0  0  0  0
 11 12  1  0  0  0  0
 11 18  1  0  0  0  0
 12 13  2  0  0  0  0
 13 14  1  0  0  0  0
 14  8  1  0  0  0  0
 14 15  2  0  0  0  0
 15 16  1  0  0  0  0
 15 37  1  0  0  0  0
 16 17  2  0  0  0  0
 16 24  1  0  0  0  0
 17  9  1  0  0  0  0
 17 36  1  0  0  0  0
 18 19  2  0  0  0  0
 19 20  1  0  0  0  0
 19 39  1  0  0  0  0
 20 21  2  0  0  0  0
 20 23  1  0  0  0  0
 21 12  1  0  0  0  0
 21 38  1  0  0  0  0
 22 31  1  0  0  0  0
 22 32  1  0  0  0  0
 22 33  1  0  0  0  0
 23 25  1  0  0  0  0
 23 26  1  0  0  0  0
 23 27  1  0  0  0  0
 24 28  1  0  0  0  0
 24 29  1  0  0  0  0
 24 30  1  0  0  0  0
 25 64  1  0  0  0  0
 25 65  1  0  0  0  0
 25 66  1  0  0  0  0
 26 61  1  0  0  0  0
 26 62  1  0  0  0  0
 26 63  1  0  0  0  0
 27 58  1  0  0  0  0
 27 59  1  0  0  0  0
 27 60  1  0  0  0  0
 28 49  1  0  0  0  0
 28 50  1  0  0  0  0
 28 51  1  0  0  0  0
 29 55  1  0  0  0  0
 29 56  1  0  0  0  0
 29 57  1  0  0  0  0
 30 52  1  0  0  0  0
 30 53  1  0  0  0  0
 30 54  1  0  0  0  0
 31 46  1  0  0  0  0
 31 47  1  0  0  0  0
 31 48  1  0  0  0  0
 32 43  1  0  0  0  0
 32 44  1  0  0  0  0
 32 45  1  0  0  0  0
 33 40  1  0  0  0  0
 33 41  1  0  0  0  0
 33 42  1  0  0  0  0
 18 67  1  0  0  0  0
 67  2  1  0  0  0  0
M  CHG  1   1   1
M  END
