 energy: -186.468532342706 gnorm: 0.000104029787 xtb: 6.7.1 (edcfbbe)
          03102511163D

134144  0     0  0            999 V2000
   -1.8041    1.4474    1.5020 C   0  0  0  0  0  0  0  0  0  0  0  0
   -1.8551    0.0785    1.3584 C   0  0  0  0  0  0  0  0  0  0  0  0
   -0.7235   -0.6695    1.7059 C   0  0  0  0  0  0  0  0  0  0  0  0
    0.4643   -0.0768    2.2045 C   0  0  0  0  0  0  0  0  0  0  0  0
    0.4607    1.3260    2.3518 C   0  0  0  0  0  0  0  0  0  0  0  0
   -0.6412    2.0748    1.9916 C   0  0  0  0  0  0  0  0  0  0  0  0
   -0.7314   -2.0544    1.4958 C   0  0  0  0  0  0  0  0  0  0  0  0
    0.4010   -2.8028    1.7567 C   0  0  0  0  0  0  0  0  0  0  0  0
    1.5495   -2.1296    2.2500 C   0  0  0  0  0  0  0  0  0  0  0  0
    1.5581   -0.8109    2.4822 N   0  0  0  0  0  0  0  0  0  0  0  0
   -1.8651   -2.6646    0.9407 C   0  0  0  0  0  0  0  0  0  0  0  0
   -1.8151   -4.0591    0.6863 C   0  0  0  0  0  0  0  0  0  0  0  0
   -0.7171   -4.7890    0.9523 N   0  0  0  0  0  0  0  0  0  0  0  0
    0.3689   -4.1904    1.4538 C   0  0  0  0  0  0  0  0  0  0  0  0
    1.5690   -4.9008    1.6572 C   0  0  0  0  0  0  0  0  0  0  0  0
    2.7218   -4.2704    2.1228 C   0  0  0  0  0  0  0  0  0  0  0  0
    2.7097   -2.9150    2.4377 C   0  0  0  0  0  0  0  0  0  0  0  0
   -2.9762   -1.8789    0.6193 C   0  0  0  0  0  0  0  0  0  0  0  0
   -4.0800   -2.4903    0.0535 C   0  0  0  0  0  0  0  0  0  0  0  0
   -4.0798   -3.8754   -0.1872 C   0  0  0  0  0  0  0  0  0  0  0  0
   -2.9673   -4.6374    0.1205 C   0  0  0  0  0  0  0  0  0  0  0  0
   -0.6382    3.5959    2.0396 C   0  0  0  0  0  0  0  0  0  0  0  0
   -5.2959   -4.5710   -0.7849 C   0  0  0  0  0  0  0  0  0  0  0  0
    3.9958   -5.1005    2.2122 C   0  0  0  0  0  0  0  0  0  0  0  0
   -6.4478   -3.6095   -1.0894 C   0  0  0  0  0  0  0  0  0  0  0  0
   -5.8039   -5.6187    0.2157 C   0  0  0  0  0  0  0  0  0  0  0  0
   -4.8883   -5.2562   -2.0965 C   0  0  0  0  0  0  0  0  0  0  0  0
    4.4352   -5.4511    0.7825 C   0  0  0  0  0  0  0  0  0  0  0  0
    5.1382   -4.3470    2.8967 C   0  0  0  0  0  0  0  0  0  0  0  0
    3.7216   -6.3901    2.9986 C   0  0  0  0  0  0  0  0  0  0  0  0
   -1.8720    4.0994    2.8022 C   0  0  0  0  0  0  0  0  0  0  0  0
    0.6135    4.1528    2.7210 C   0  0  0  0  0  0  0  0  0  0  0  0
   -0.6771    4.1203    0.5962 C   0  0  0  0  0  0  0  0  0  0  0  0
    1.3613    1.7782    2.7295 H   0  0  0  0  0  0  0  0  0  0  0  0
   -2.6659    2.0263    1.2151 H   0  0  0  0  0  0  0  0  0  0  0  0
    3.5856   -2.4084    2.8056 H   0  0  0  0  0  0  0  0  0  0  0  0
    1.5675   -5.9492    1.4095 H   0  0  0  0  0  0  0  0  0  0  0  0
   -2.9435   -5.6978   -0.0691 H   0  0  0  0  0  0  0  0  0  0  0  0
   -4.9294   -1.8772   -0.1921 H   0  0  0  0  0  0  0  0  0  0  0  0
   -1.5659    3.7752    0.0747 H   0  0  0  0  0  0  0  0  0  0  0  0
   -0.6782    5.2083    0.5946 H   0  0  0  0  0  0  0  0  0  0  0  0
    0.1958    3.7743    0.0467 H   0  0  0  0  0  0  0  0  0  0  0  0
    0.5418    5.2373    2.7836 H   0  0  0  0  0  0  0  0  0  0  0  0
    1.5085    3.9115    2.1526 H   0  0  0  0  0  0  0  0  0  0  0  0
    0.7137    3.7505    3.7258 H   0  0  0  0  0  0  0  0  0  0  0  0
   -1.9427    3.6077    3.7686 H   0  0  0  0  0  0  0  0  0  0  0  0
   -1.8013    5.1738    2.9596 H   0  0  0  0  0  0  0  0  0  0  0  0
   -2.7894    3.9050    2.2544 H   0  0  0  0  0  0  0  0  0  0  0  0
    4.6450   -4.5443    0.2187 H   0  0  0  0  0  0  0  0  0  0  0  0
    3.6606   -6.0050    0.2587 H   0  0  0  0  0  0  0  0  0  0  0  0
    5.3373   -6.0588    0.8075 H   0  0  0  0  0  0  0  0  0  0  0  0
    3.0894   -7.0724    2.4383 H   0  0  0  0  0  0  0  0  0  0  0  0
    4.6566   -6.9043    3.2124 H   0  0  0  0  0  0  0  0  0  0  0  0
    3.2233   -6.1580    3.9357 H   0  0  0  0  0  0  0  0  0  0  0  0
    5.4423   -3.4796    2.3153 H   0  0  0  0  0  0  0  0  0  0  0  0
    6.0024   -5.0030    2.9883 H   0  0  0  0  0  0  0  0  0  0  0  0
    4.8404   -4.0221    3.8906 H   0  0  0  0  0  0  0  0  0  0  0  0
   -4.5010   -4.5218   -2.7997 H   0  0  0  0  0  0  0  0  0  0  0  0
   -4.1209   -6.0065   -1.9309 H   0  0  0  0  0  0  0  0  0  0  0  0
   -5.7505   -5.7436   -2.5466 H   0  0  0  0  0  0  0  0  0  0  0  0
   -6.6719   -6.1335   -0.1905 H   0  0  0  0  0  0  0  0  0  0  0  0
   -6.0925   -5.1357    1.1465 H   0  0  0  0  0  0  0  0  0  0  0  0
   -5.0401   -6.3579    0.4380 H   0  0  0  0  0  0  0  0  0  0  0  0
   -6.7982   -3.1169   -0.1854 H   0  0  0  0  0  0  0  0  0  0  0  0
   -6.1505   -2.8572   -1.8162 H   0  0  0  0  0  0  0  0  0  0  0  0
   -7.2812   -4.1689   -1.5094 H   0  0  0  0  0  0  0  0  0  0  0  0
   -2.9767   -0.5275    0.8504 O   0  0  0  0  0  0  0  0  0  0  0  0
   -0.1912    2.3379    5.8472 C   0  0  0  0  0  0  0  0  0  0  0  0
   -0.1696    1.0024    5.4898 C   0  0  0  0  0  0  0  0  0  0  0  0
    1.0181    0.2840    5.6629 C   0  0  0  0  0  0  0  0  0  0  0  0
    2.1988    0.8746    6.1836 C   0  0  0  0  0  0  0  0  0  0  0  0
    2.1332    2.2427    6.5059 C   0  0  0  0  0  0  0  0  0  0  0  0
    0.9617    2.9616    6.3587 C   0  0  0  0  0  0  0  0  0  0  0  0
    1.0267   -1.0959    5.4147 C   0  0  0  0  0  0  0  0  0  0  0  0
    2.1553   -1.8439    5.6997 C   0  0  0  0  0  0  0  0  0  0  0  0
    3.2918   -1.1686    6.2198 C   0  0  0  0  0  0  0  0  0  0  0  0
    3.3064    0.1527    6.4274 N   0  0  0  0  0  0  0  0  0  0  0  0
   -0.1554   -1.7348    5.0154 C   0  0  0  0  0  0  0  0  0  0  0  0
   -0.1392   -3.1476    4.8830 C   0  0  0  0  0  0  0  0  0  0  0  0
    0.9680   -3.8703    5.1337 N   0  0  0  0  0  0  0  0  0  0  0  0
    2.0778   -3.2541    5.5581 C   0  0  0  0  0  0  0  0  0  0  0  0
    3.2116   -3.9923    5.9700 C   0  0  0  0  0  0  0  0  0  0  0  0
    4.3432   -3.3646    6.4825 C   0  0  0  0  0  0  0  0  0  0  0  0
    4.3893   -1.9746    6.5879 C   0  0  0  0  0  0  0  0  0  0  0  0
   -1.3189   -0.9745    4.8471 C   0  0  0  0  0  0  0  0  0  0  0  0
   -2.4979   -1.6316    4.5556 C   0  0  0  0  0  0  0  0  0  0  0  0
   -2.5275   -3.0353    4.4354 C   0  0  0  0  0  0  0  0  0  0  0  0
   -1.3639   -3.7688    4.5668 C   0  0  0  0  0  0  0  0  0  0  0  0
    0.9307    4.4087    6.8383 C   0  0  0  0  0  0  0  0  0  0  0  0
   -3.8729   -3.7430    4.3263 C   0  0  0  0  0  0  0  0  0  0  0  0
    5.5295   -4.1641    7.0115 C   0  0  0  0  0  0  0  0  0  0  0  0
   -4.9073   -2.9238    3.5464 C   0  0  0  0  0  0  0  0  0  0  0  0
   -4.3774   -3.9340    5.7667 C   0  0  0  0  0  0  0  0  0  0  0  0
   -3.7507   -5.1166    3.6577 C   0  0  0  0  0  0  0  0  0  0  0  0
    6.8355   -3.6586    6.3832 C   0  0  0  0  0  0  0  0  0  0  0  0
    5.5825   -3.9696    8.5344 C   0  0  0  0  0  0  0  0  0  0  0  0
    5.4150   -5.6635    6.7225 C   0  0  0  0  0  0  0  0  0  0  0  0
   -0.3760    5.1296    6.4956 C   0  0  0  0  0  0  0  0  0  0  0  0
    1.0860    4.3968    8.3668 C   0  0  0  0  0  0  0  0  0  0  0  0
    2.0869    5.2023    6.2140 C   0  0  0  0  0  0  0  0  0  0  0  0
    3.0222    2.6937    6.9141 H   0  0  0  0  0  0  0  0  0  0  0  0
   -1.1184    2.8749    5.7511 H   0  0  0  0  0  0  0  0  0  0  0  0
    5.2489   -1.4738    7.0022 H   0  0  0  0  0  0  0  0  0  0  0  0
    3.1412   -5.0646    5.9131 H   0  0  0  0  0  0  0  0  0  0  0  0
   -1.3576   -4.8411    4.4803 H   0  0  0  0  0  0  0  0  0  0  0  0
   -3.3953   -1.0454    4.4556 H   0  0  0  0  0  0  0  0  0  0  0  0
    2.0197    5.1863    5.1292 H   0  0  0  0  0  0  0  0  0  0  0  0
    2.0446    6.2375    6.5459 H   0  0  0  0  0  0  0  0  0  0  0  0
    3.0519    4.7972    6.5020 H   0  0  0  0  0  0  0  0  0  0  0  0
    1.0648    5.4133    8.7535 H   0  0  0  0  0  0  0  0  0  0  0  0
    2.0247    3.9354    8.6607 H   0  0  0  0  0  0  0  0  0  0  0  0
    0.2734    3.8359    8.8242 H   0  0  0  0  0  0  0  0  0  0  0  0
   -1.2247    4.6697    6.9962 H   0  0  0  0  0  0  0  0  0  0  0  0
   -0.3149    6.1626    6.8320 H   0  0  0  0  0  0  0  0  0  0  0  0
   -0.5516    5.1344    5.4233 H   0  0  0  0  0  0  0  0  0  0  0  0
    7.0249   -2.6185    6.6303 H   0  0  0  0  0  0  0  0  0  0  0  0
    6.7992   -3.7517    5.3006 H   0  0  0  0  0  0  0  0  0  0  0  0
    7.6729   -4.2481    6.7506 H   0  0  0  0  0  0  0  0  0  0  0  0
    5.3363   -5.8517    5.6552 H   0  0  0  0  0  0  0  0  0  0  0  0
    6.3053   -6.1694    7.0905 H   0  0  0  0  0  0  0  0  0  0  0  0
    4.5554   -6.0986    7.2264 H   0  0  0  0  0  0  0  0  0  0  0  0
    5.7119   -2.9220    8.7927 H   0  0  0  0  0  0  0  0  0  0  0  0
    6.4127   -4.5329    8.9551 H   0  0  0  0  0  0  0  0  0  0  0  0
    4.6598   -4.3215    8.9914 H   0  0  0  0  0  0  0  0  0  0  0  0
   -3.2480   -5.0350    2.6978 H   0  0  0  0  0  0  0  0  0  0  0  0
   -3.2043   -5.8168    4.2829 H   0  0  0  0  0  0  0  0  0  0  0  0
   -4.7423   -5.5320    3.4916 H   0  0  0  0  0  0  0  0  0  0  0  0
   -5.3386   -4.4436    5.7623 H   0  0  0  0  0  0  0  0  0  0  0  0
   -4.4962   -2.9726    6.2619 H   0  0  0  0  0  0  0  0  0  0  0  0
   -3.6707   -4.5283    6.3414 H   0  0  0  0  0  0  0  0  0  0  0  0
   -5.1924   -2.0201    4.0779 H   0  0  0  0  0  0  0  0  0  0  0  0
   -4.5242   -2.6530    2.5666 H   0  0  0  0  0  0  0  0  0  0  0  0
   -5.8098   -3.5158    3.4077 H   0  0  0  0  0  0  0  0  0  0  0  0
   -1.3092    0.3858    5.0367 O   0  0  0  0  0  0  0  0  0  0  0  0
  1  2  2  0  0  0  0
  1 35  1  0  0  0  0
  2  3  1  0  0  0  0
  3  4  2  0  0  0  0
  3  7  1  0  0  0  0
  4  5  1  0  0  0  0
  5  6  2  0  0  0  0
  5 34  1  0  0  0  0
  6  1  1  0  0  0  0
  6 22  1  0  0  0  0
  7 11  2  0  0  0  0
  8  7  1  0  0  0  0
  8  9  1  0  0  0  0
  9 10  2  0  0  0  0
 10  4  1  0  0  0  0
 11 12  1  0  0  0  0
 11 18  1  0  0  0  0
 12 13  2  0  0  0  0
 13 14  1  0  0  0  0
 14  8  1  0  0  0  0
 14 15  2  0  0  0  0
 15 16  1  0  0  0  0
 15 37  1  0  0  0  0
 16 17  2  0  0  0  0
 16 24  1  0  0  0  0
 17  9  1  0  0  0  0
 17 36  1  0  0  0  0
 18 19  2  0  0  0  0
 18 67  1  0  0  0  0
 19 20  1  0  0  0  0
 19 39  1  0  0  0  0
 20 21  2  0  0  0  0
 20 23  1  0  0  0  0
 21 12  1  0  0  0  0
 21 38  1  0  0  0  0
 22 31  1  0  0  0  0
 22 32  1  0  0  0  0
 22 33  1  0  0  0  0
 23 25  1  0  0  0  0
 23 26  1  0  0  0  0
 23 27  1  0  0  0  0
 24 28  1  0  0  0  0
 24 29  1  0  0  0  0
 24 30  1  0  0  0  0
 25 64  1  0  0  0  0
 25 65  1  0  0  0  0
 25 66  1  0  0  0  0
 26 61  1  0  0  0  0
 26 62  1  0  0  0  0
 26 63  1  0  0  0  0
 27 58  1  0  0  0  0
 27 59  1  0  0  0  0
 27 60  1  0  0  0  0
 28 49  1  0  0  0  0
 28 50  1  0  0  0  0
 28 51  1  0  0  0  0
 29 55  1  0  0  0  0
 29 56  1  0  0  0  0
 29 57  1  0  0  0  0
 30 52  1  0  0  0  0
 30 53  1  0  0  0  0
 30 54  1  0  0  0  0
 31 46  1  0  0  0  0
 31 47  1  0  0  0  0
 31 48  1  0  0  0  0
 32 43  1  0  0  0  0
 32 44  1  0  0  0  0
 32 45  1  0  0  0  0
 33 40  1  0  0  0  0
 33 41  1  0  0  0  0
 33 42  1  0  0  0  0
 67  2  1  0  0  0  0
 68 69  2  0  0  0  0
 68102  1  0  0  0  0
 69 70  1  0  0  0  0
 70 71  2  0  0  0  0
 70 74  1  0  0  0  0
 71 72  1  0  0  0  0
 72 73  2  0  0  0  0
 72101  1  0  0  0  0
 73 68  1  0  0  0  0
 73 89  1  0  0  0  0
 74 78  2  0  0  0  0
 75 74  1  0  0  0  0
 75 76  1  0  0  0  0
 76 77  2  0  0  0  0
 77 71  1  0  0  0  0
 78 79  1  0  0  0  0
 78 85  1  0  0  0  0
 79 80  2  0  0  0  0
 80 81  1  0  0  0  0
 81 75  1  0  0  0  0
 81 82  2  0  0  0  0
 82 83  1  0  0  0  0
 82104  1  0  0  0  0
 83 84  2  0  0  0  0
 83 91  1  0  0  0  0
 84 76  1  0  0  0  0
 84103  1  0  0  0  0
 85 86  2  0  0  0  0
 85134  1  0  0  0  0
 86 87  1  0  0  0  0
 86106  1  0  0  0  0
 87 88  2  0  0  0  0
 87 90  1  0  0  0  0
 88 79  1  0  0  0  0
 88105  1  0  0  0  0
 89 98  1  0  0  0  0
 89 99  1  0  0  0  0
 89100  1  0  0  0  0
 90 92  1  0  0  0  0
 90 93  1  0  0  0  0
 90 94  1  0  0  0  0
 91 95  1  0  0  0  0
 91 96  1  0  0  0  0
 91 97  1  0  0  0  0
 92131  1  0  0  0  0
 92132  1  0  0  0  0
 92133  1  0  0  0  0
 93128  1  0  0  0  0
 93129  1  0  0  0  0
 93130  1  0  0  0  0
 94125  1  0  0  0  0
 94126  1  0  0  0  0
 94127  1  0  0  0  0
 95116  1  0  0  0  0
 95117  1  0  0  0  0
 95118  1  0  0  0  0
 96122  1  0  0  0  0
 96123  1  0  0  0  0
 96124  1  0  0  0  0
 97119  1  0  0  0  0
 97120  1  0  0  0  0
 97121  1  0  0  0  0
 98113  1  0  0  0  0
 98114  1  0  0  0  0
 98115  1  0  0  0  0
 99110  1  0  0  0  0
 99111  1  0  0  0  0
 99112  1  0  0  0  0
100107  1  0  0  0  0
100108  1  0  0  0  0
100109  1  0  0  0  0
134 69  1  0  0  0  0
M  END
