 xtb: 6.6.1 (8d0f1dd)
          03142517183D

152164  0     0  0            999 V2000
   -2.9838    1.6654   -2.3283 C   0  0  0  0  0  0  0  0  0  0  0  0
   -2.6364    0.6852   -1.4270 C   0  0  0  0  0  0  0  0  0  0  0  0
   -1.4615    0.8142   -0.6581 C   0  0  0  0  0  0  0  0  0  0  0  0
   -0.5387    1.8363   -1.0473 C   0  0  0  0  0  0  0  0  0  0  0  0
   -0.9482    2.8364   -1.9590 C   0  0  0  0  0  0  0  0  0  0  0  0
   -2.1759    2.7931   -2.5668 C   0  0  0  0  0  0  0  0  0  0  0  0
   -1.0656   -0.0268    0.4269 C   0  0  0  0  0  0  0  0  0  0  0  0
    0.3043   -0.0689    0.7161 C   0  0  0  0  0  0  0  0  0  0  0  0
    1.1807    0.9007    0.1555 C   0  0  0  0  0  0  0  0  0  0  0  0
    0.7273    1.8852   -0.6207 N   0  0  0  0  0  0  0  0  0  0  0  0
   -1.9087   -0.8447    1.2358 C   0  0  0  0  0  0  0  0  0  0  0  0
   -1.2848   -1.9163    1.9460 C   0  0  0  0  0  0  0  0  0  0  0  0
    0.0418   -2.0363    2.0735 N   0  0  0  0  0  0  0  0  0  0  0  0
    0.8222   -1.0808    1.5710 C   0  0  0  0  0  0  0  0  0  0  0  0
    2.2100   -1.1074    1.8317 C   0  0  0  0  0  0  0  0  0  0  0  0
    3.0680   -0.1510    1.3095 C   0  0  0  0  0  0  0  0  0  0  0  0
    2.5482    0.8458    0.4888 C   0  0  0  0  0  0  0  0  0  0  0  0
   -3.2931   -0.6365    1.4351 C   0  0  0  0  0  0  0  0  0  0  0  0
   -4.0464   -1.6095    2.0631 C   0  0  0  0  0  0  0  0  0  0  0  0
   -3.4633   -2.7735    2.5917 C   0  0  0  0  0  0  0  0  0  0  0  0
   -2.0942   -2.8876    2.5701 C   0  0  0  0  0  0  0  0  0  0  0  0
   -3.7715    0.5773    1.0600 O   0  0  0  0  0  0  0  0  0  0  0  0
   -3.4668   -0.4212   -1.3509 O   0  0  0  0  0  0  0  0  0  0  0  0
   -2.6699    3.8587   -3.5305 C   0  0  0  0  0  0  0  0  0  0  0  0
   -4.2988   -3.8712    3.2340 C   0  0  0  0  0  0  0  0  0  0  0  0
    4.5612   -0.1494    1.6058 C   0  0  0  0  0  0  0  0  0  0  0  0
   -5.8052   -3.6133    3.1376 C   0  0  0  0  0  0  0  0  0  0  0  0
   -3.9972   -5.1968    2.5205 C   0  0  0  0  0  0  0  0  0  0  0  0
   -3.9238   -3.9837    4.7180 C   0  0  0  0  0  0  0  0  0  0  0  0
    5.3342   -0.2532    0.2838 C   0  0  0  0  0  0  0  0  0  0  0  0
    4.9217    1.1610    2.3195 C   0  0  0  0  0  0  0  0  0  0  0  0
    4.9867   -1.3159    2.5011 C   0  0  0  0  0  0  0  0  0  0  0  0
   -4.0120    4.4011   -3.0202 C   0  0  0  0  0  0  0  0  0  0  0  0
   -2.8533    3.2368   -4.9219 C   0  0  0  0  0  0  0  0  0  0  0  0
   -1.6929    5.0307   -3.6512 C   0  0  0  0  0  0  0  0  0  0  0  0
   -0.2245    3.6055   -2.1669 H   0  0  0  0  0  0  0  0  0  0  0  0
   -3.9054    1.5255   -2.8719 H   0  0  0  0  0  0  0  0  0  0  0  0
    3.1761    1.6156    0.0702 H   0  0  0  0  0  0  0  0  0  0  0  0
    2.5588   -1.9063    2.4629 H   0  0  0  0  0  0  0  0  0  0  0  0
   -1.5784   -3.7027    3.0500 H   0  0  0  0  0  0  0  0  0  0  0  0
   -5.1060   -1.4577    2.1667 H   0  0  0  0  0  0  0  0  0  0  0  0
   -5.1553    0.8097    1.0965 C   0  0  0  0  0  0  0  0  0  0  0  0
   -2.8763   -1.6380   -1.7477 C   0  0  0  0  0  0  0  0  0  0  0  0
   -1.5153    5.4895   -2.6817 H   0  0  0  0  0  0  0  0  0  0  0  0
   -2.1117    5.7863   -4.3129 H   0  0  0  0  0  0  0  0  0  0  0  0
   -0.7435    4.7066   -4.0698 H   0  0  0  0  0  0  0  0  0  0  0  0
   -3.5926    2.4408   -4.9072 H   0  0  0  0  0  0  0  0  0  0  0  0
   -1.9113    2.8223   -5.2747 H   0  0  0  0  0  0  0  0  0  0  0  0
   -3.1836    3.9948   -5.6290 H   0  0  0  0  0  0  0  0  0  0  0  0
   -4.7612    3.6166   -2.9610 H   0  0  0  0  0  0  0  0  0  0  0  0
   -4.3815    5.1753   -3.6895 H   0  0  0  0  0  0  0  0  0  0  0  0
   -3.8890    4.8313   -2.0286 H   0  0  0  0  0  0  0  0  0  0  0  0
    5.1181    0.5866   -0.3703 H   0  0  0  0  0  0  0  0  0  0  0  0
    5.0660   -1.1698   -0.2374 H   0  0  0  0  0  0  0  0  0  0  0  0
    6.4047   -0.2674    0.4777 H   0  0  0  0  0  0  0  0  0  0  0  0
    4.7663   -2.2710    2.0304 H   0  0  0  0  0  0  0  0  0  0  0  0
    4.4890   -1.2707    3.4667 H   0  0  0  0  0  0  0  0  0  0  0  0
    6.0599   -1.2658    2.6737 H   0  0  0  0  0  0  0  0  0  0  0  0
    4.6920    2.0248    1.7021 H   0  0  0  0  0  0  0  0  0  0  0  0
    5.9844    1.1798    2.5519 H   0  0  0  0  0  0  0  0  0  0  0  0
    4.3634    1.2481    3.2493 H   0  0  0  0  0  0  0  0  0  0  0  0
   -4.1104   -3.0401    5.2266 H   0  0  0  0  0  0  0  0  0  0  0  0
   -2.8740   -4.2338    4.8400 H   0  0  0  0  0  0  0  0  0  0  0  0
   -4.5191   -4.7583    5.1970 H   0  0  0  0  0  0  0  0  0  0  0  0
   -4.2523   -5.1224    1.4653 H   0  0  0  0  0  0  0  0  0  0  0  0
   -4.5821   -6.0015    2.9612 H   0  0  0  0  0  0  0  0  0  0  0  0
   -2.9455   -5.4558    2.5987 H   0  0  0  0  0  0  0  0  0  0  0  0
   -6.1194   -3.5078    2.1015 H   0  0  0  0  0  0  0  0  0  0  0  0
   -6.0896   -2.7218    3.6920 H   0  0  0  0  0  0  0  0  0  0  0  0
   -6.3432   -4.4562    3.5669 H   0  0  0  0  0  0  0  0  0  0  0  0
   -3.6405   -2.4020   -1.6122 H   0  0  0  0  0  0  0  0  0  0  0  0
   -2.0019   -1.8976   -1.1434 H   0  0  0  0  0  0  0  0  0  0  0  0
   -2.5803   -1.6017   -2.8031 H   0  0  0  0  0  0  0  0  0  0  0  0
   -5.2929    1.8110    0.6911 H   0  0  0  0  0  0  0  0  0  0  0  0
   -5.5451    0.7778    2.1201 H   0  0  0  0  0  0  0  0  0  0  0  0
   -5.6940    0.0909    0.4720 H   0  0  0  0  0  0  0  0  0  0  0  0
   -3.4167   -0.0496    3.6717 C   0  0  0  0  0  0  0  0  0  0  0  0
   -2.6258   -0.7248    4.5730 C   0  0  0  0  0  0  0  0  0  0  0  0
   -1.6728   -0.0256    5.3419 C   0  0  0  0  0  0  0  0  0  0  0  0
   -1.3847    1.3209    4.9527 C   0  0  0  0  0  0  0  0  0  0  0  0
   -2.2394    1.9823    4.0410 C   0  0  0  0  0  0  0  0  0  0  0  0
   -3.2809    1.3309    3.4332 C   0  0  0  0  0  0  0  0  0  0  0  0
   -0.9094   -0.5560    6.4269 C   0  0  0  0  0  0  0  0  0  0  0  0
    0.2980    0.0925    6.7161 C   0  0  0  0  0  0  0  0  0  0  0  0
    0.5722    1.3704    6.1555 C   0  0  0  0  0  0  0  0  0  0  0  0
   -0.3127    1.9963    5.3793 N   0  0  0  0  0  0  0  0  0  0  0  0
   -1.2306   -1.6859    7.2358 C   0  0  0  0  0  0  0  0  0  0  0  0
   -0.1545   -2.3020    7.9460 C   0  0  0  0  0  0  0  0  0  0  0  0
    1.0543   -1.7426    8.0735 N   0  0  0  0  0  0  0  0  0  0  0  0
    1.2524   -0.5249    7.5710 C   0  0  0  0  0  0  0  0  0  0  0  0
    2.4676    0.1460    7.8317 C   0  0  0  0  0  0  0  0  0  0  0  0
    2.7325    1.4032    7.3095 C   0  0  0  0  0  0  0  0  0  0  0  0
    1.7839    2.0066    6.4888 C   0  0  0  0  0  0  0  0  0  0  0  0
   -2.5337   -2.1978    7.4351 C   0  0  0  0  0  0  0  0  0  0  0  0
   -2.6995   -3.4171    8.0631 C   0  0  0  0  0  0  0  0  0  0  0  0
   -1.6126   -4.1336    8.5917 C   0  0  0  0  0  0  0  0  0  0  0  0
   -0.3698   -3.5478    8.5701 C   0  0  0  0  0  0  0  0  0  0  0  0
   -3.5549   -1.3858    7.0600 O   0  0  0  0  0  0  0  0  0  0  0  0
   -2.7917   -2.0982    4.6491 O   0  0  0  0  0  0  0  0  0  0  0  0
   -4.2416    2.0068    2.4695 C   0  0  0  0  0  0  0  0  0  0  0  0
   -1.7873   -5.5020    9.2340 C   0  0  0  0  0  0  0  0  0  0  0  0
    4.0248    2.1512    7.6058 C   0  0  0  0  0  0  0  0  0  0  0  0
   -3.2208   -6.0318    9.1376 C   0  0  0  0  0  0  0  0  0  0  0  0
   -0.8633   -6.4992    8.5205 C   0  0  0  0  0  0  0  0  0  0  0  0
   -1.4063   -5.4119   10.7180 C   0  0  0  0  0  0  0  0  0  0  0  0
    4.7462    2.4478    6.2838 C   0  0  0  0  0  0  0  0  0  0  0  0
    3.6818    3.4663    8.3195 C   0  0  0  0  0  0  0  0  0  0  0  0
    4.9766    1.3537    8.5011 C   0  0  0  0  0  0  0  0  0  0  0  0
   -5.6750    1.8055    2.9798 C   0  0  0  0  0  0  0  0  0  0  0  0
   -4.0894    1.3765    1.0781 C   0  0  0  0  0  0  0  0  0  0  0  0
   -3.9814    3.5103    2.3488 C   0  0  0  0  0  0  0  0  0  0  0  0
   -1.9972    3.0102    3.8331 H   0  0  0  0  0  0  0  0  0  0  0  0
   -4.1449   -0.6316    3.1281 H   0  0  0  0  0  0  0  0  0  0  0  0
    1.9428    2.9872    6.0702 H   0  0  0  0  0  0  0  0  0  0  0  0
    3.1691   -0.3715    8.4629 H   0  0  0  0  0  0  0  0  0  0  0  0
    0.4844   -3.9958    9.0500 H   0  0  0  0  0  0  0  0  0  0  0  0
   -3.6931   -3.8154    8.1667 H   0  0  0  0  0  0  0  0  0  0  0  0
   -4.8695   -1.8764    7.0965 C   0  0  0  0  0  0  0  0  0  0  0  0
   -1.6719   -2.8567    4.2523 C   0  0  0  0  0  0  0  0  0  0  0  0
   -4.0570    3.9964    3.3183 H   0  0  0  0  0  0  0  0  0  0  0  0
   -4.7219    3.9552    1.6871 H   0  0  0  0  0  0  0  0  0  0  0  0
   -2.9972    3.7043    1.9302 H   0  0  0  0  0  0  0  0  0  0  0  0
   -4.3317    0.3175    1.0928 H   0  0  0  0  0  0  0  0  0  0  0  0
   -3.0664    1.4885    0.7253 H   0  0  0  0  0  0  0  0  0  0  0  0
   -4.7545    1.8678    0.3710 H   0  0  0  0  0  0  0  0  0  0  0  0
   -5.9316    0.7515    3.0390 H   0  0  0  0  0  0  0  0  0  0  0  0
   -6.3821    2.2912    2.3105 H   0  0  0  0  0  0  0  0  0  0  0  0
   -5.7836    2.2395    3.9714 H   0  0  0  0  0  0  0  0  0  0  0  0
    4.1391    3.0671    5.6297 H   0  0  0  0  0  0  0  0  0  0  0  0
    4.9722    1.5199    5.7626 H   0  0  0  0  0  0  0  0  0  0  0  0
    5.6803    2.9708    6.4777 H   0  0  0  0  0  0  0  0  0  0  0  0
    5.2632    0.4164    8.0304 H   0  0  0  0  0  0  0  0  0  0  0  0
    4.5229    1.1440    9.4667 H   0  0  0  0  0  0  0  0  0  0  0  0
    5.8809    1.9337    8.6737 H   0  0  0  0  0  0  0  0  0  0  0  0
    3.0510    4.0995    7.7021 H   0  0  0  0  0  0  0  0  0  0  0  0
    4.5927    4.0139    8.5519 H   0  0  0  0  0  0  0  0  0  0  0  0
    3.1548    3.2626    9.2493 H   0  0  0  0  0  0  0  0  0  0  0  0
   -2.0397   -4.6880   11.2266 H   0  0  0  0  0  0  0  0  0  0  0  0
   -0.3721   -5.1036   10.8400 H   0  0  0  0  0  0  0  0  0  0  0  0
   -1.5345   -6.3804   11.1970 H   0  0  0  0  0  0  0  0  0  0  0  0
   -1.1214   -6.5623    7.4653 H   0  0  0  0  0  0  0  0  0  0  0  0
   -0.9675   -7.4885    8.9612 H   0  0  0  0  0  0  0  0  0  0  0  0
    0.1770   -6.1976    8.5987 H   0  0  0  0  0  0  0  0  0  0  0  0
   -3.5457   -6.0975    8.1015 H   0  0  0  0  0  0  0  0  0  0  0  0
   -3.9128   -5.4019    9.6920 H   0  0  0  0  0  0  0  0  0  0  0  0
   -3.2653   -7.0308    9.5669 H   0  0  0  0  0  0  0  0  0  0  0  0
   -1.9518   -3.9004    4.3878 H   0  0  0  0  0  0  0  0  0  0  0  0
   -0.7849   -2.6443    4.8566 H   0  0  0  0  0  0  0  0  0  0  0  0
   -1.4338   -2.6773    3.1969 H   0  0  0  0  0  0  0  0  0  0  0  0
   -5.4893   -1.0781    6.6911 H   0  0  0  0  0  0  0  0  0  0  0  0
   -5.1911   -2.0990    8.1201 H   0  0  0  0  0  0  0  0  0  0  0  0
   -4.9766   -2.7683    6.4720 H   0  0  0  0  0  0  0  0  0  0  0  0
  1  2  4  0  0  0  0
  2  3  4  0  0  0  0
  3  4  1  0  0  0  0
  4  5  4  0  0  0  0
  1  6  4  0  0  0  0
  5  6  4  0  0  0  0
  3  7  1  0  0  0  0
  7  8  4  0  0  0  0
  8  9  1  0  0  0  0
  4 10  4  0  0  0  0
  9 10  4  0  0  0  0
  7 11  4  0  0  0  0
 11 12  4  0  0  0  0
 12 13  4  0  0  0  0
  8 14  4  0  0  0  0
 13 14  4  0  0  0  0
 14 15  4  0  0  0  0
 15 16  4  0  0  0  0
  9 17  4  0  0  0  0
 16 17  4  0  0  0  0
 11 18  1  0  0  0  0
 18 19  1  0  0  0  0
 19 20  4  0  0  0  0
 12 21  1  0  0  0  0
 20 21  1  0  0  0  0
 18 22  1  0  0  0  0
  2 23  1  0  0  0  0
  6 24  1  0  0  0  0
 20 25  1  0  0  0  0
 16 26  1  0  0  0  0
 25 27  1  0  0  0  0
 25 28  1  0  0  0  0
 25 29  1  0  0  0  0
 26 30  1  0  0  0  0
 26 31  1  0  0  0  0
 26 32  1  0  0  0  0
 24 33  1  0  0  0  0
 24 34  1  0  0  0  0
 24 35  1  0  0  0  0
  5 36  1  0  0  0  0
  1 37  1  0  0  0  0
 17 38  1  0  0  0  0
 15 39  1  0  0  0  0
 21 40  1  0  0  0  0
 19 41  1  0  0  0  0
 23 43  1  0  0  0  0
 35 44  1  0  0  0  0
 35 45  1  0  0  0  0
 35 46  1  0  0  0  0
 34 47  1  0  0  0  0
 34 48  1  0  0  0  0
 34 49  1  0  0  0  0
 33 50  1  0  0  0  0
 33 51  1  0  0  0  0
 33 52  1  0  0  0  0
 30 53  1  0  0  0  0
 30 54  1  0  0  0  0
 30 55  1  0  0  0  0
 32 56  1  0  0  0  0
 32 57  1  0  0  0  0
 32 58  1  0  0  0  0
 31 59  1  0  0  0  0
 31 60  1  0  0  0  0
 31 61  1  0  0  0  0
 29 62  1  0  0  0  0
 29 63  1  0  0  0  0
 29 64  1  0  0  0  0
 28 65  1  0  0  0  0
 28 66  1  0  0  0  0
 28 67  1  0  0  0  0
 27 68  1  0  0  0  0
 27 69  1  0  0  0  0
 27 70  1  0  0  0  0
 43 71  1  0  0  0  0
 43 72  1  0  0  0  0
 43 73  1  0  0  0  0
 42 74  1  0  0  0  0
 42 75  1  0  0  0  0
 42 76  1  0  0  0  0
 77 78  4  0  0  0  0
 78 79  4  0  0  0  0
 79 80  1  0  0  0  0
 80 81  4  0  0  0  0
 77 82  4  0  0  0  0
 81 82  4  0  0  0  0
 79 83  1  0  0  0  0
 83 84  4  0  0  0  0
 84 85  1  0  0  0  0
 80 86  4  0  0  0  0
 85 86  4  0  0  0  0
 83 87  4  0  0  0  0
 87 88  4  0  0  0  0
 88 89  4  0  0  0  0
 84 90  1  0  0  0  0
 89 90  4  0  0  0  0
 90 91  4  0  0  0  0
 91 92  4  0  0  0  0
 85 93  4  0  0  0  0
 92 93  4  0  0  0  0
 87 94  4  0  0  0  0
 94 95  4  0  0  0  0
 95 96  4  0  0  0  0
 88 97  4  0  0  0  0
 96 97  2  0  0  0  0
 94 98  1  0  0  0  0
 78 99  1  0  0  0  0
 82100  1  0  0  0  0
 96101  1  0  0  0  0
 92102  1  0  0  0  0
101103  1  0  0  0  0
101104  1  0  0  0  0
101105  1  0  0  0  0
102106  1  0  0  0  0
102107  1  0  0  0  0
102108  1  0  0  0  0
100109  1  0  0  0  0
 22110  1  0  0  0  0
 42110  1  0  0  0  0
100110  1  0  0  0  0
100111  1  0  0  0  0
 81112  1  0  0  0  0
 77113  1  0  0  0  0
 93114  1  0  0  0  0
 91115  1  0  0  0  0
 97116  1  0  0  0  0
 95117  1  0  0  0  0
 98118  1  0  0  0  0
 21119  1  0  0  0  0
 99119  1  0  0  0  0
111120  1  0  0  0  0
111121  1  0  0  0  0
111122  1  0  0  0  0
 22123  1  0  0  0  0
110124  1  0  0  0  0
 74125  1  0  0  0  0
110125  1  0  0  0  0
109126  1  0  0  0  0
109127  1  0  0  0  0
109128  1  0  0  0  0
106129  1  0  0  0  0
106130  1  0  0  0  0
106131  1  0  0  0  0
108132  1  0  0  0  0
108133  1  0  0  0  0
108134  1  0  0  0  0
107135  1  0  0  0  0
107136  1  0  0  0  0
107137  1  0  0  0  0
105138  1  0  0  0  0
105139  1  0  0  0  0
105140  1  0  0  0  0
104141  1  0  0  0  0
104142  1  0  0  0  0
104143  1  0  0  0  0
103144  1  0  0  0  0
103145  1  0  0  0  0
103146  1  0  0  0  0
119147  1  0  0  0  0
119148  1  0  0  0  0
 21149  1  0  0  0  0
119149  1  0  0  0  0
118150  1  0  0  0  0
118151  1  0  0  0  0
118152  1  0  0  0  0
M  END
