 energy: -209.500068144761 gnorm: 0.000141313783 xtb: 6.7.1 (edcfbbe)
          02282513303D

141152  0     0  0            999 V2000
   -2.0253   -3.1214    1.4388 C   0  0  0  0  0  0  0  0  0  0  0  0
   -2.1615   -1.7921    1.0479 C   0  0  0  0  0  0  0  0  0  0  0  0
   -2.9724   -1.4335   -0.0641 C   0  0  0  0  0  0  0  0  0  0  0  0
   -3.5040   -2.5332   -0.7893 C   0  0  0  0  0  0  0  0  0  0  0  0
   -3.2766   -3.8540   -0.4122 C   0  0  0  0  0  0  0  0  0  0  0  0
   -2.5760   -4.1814    0.7323 C   0  0  0  0  0  0  0  0  0  0  0  0
   -3.3939   -0.0928   -0.3763 C   0  0  0  0  0  0  0  0  0  0  0  0
   -4.5810    0.0062   -1.1593 C   0  0  0  0  0  0  0  0  0  0  0  0
   -5.0423   -1.0569   -1.9748 C   0  0  0  0  0  0  0  0  0  0  0  0
   -4.3852   -2.3552   -1.9360 C   0  0  0  0  0  0  0  0  0  0  0  0
   -2.8157    1.1612    0.0576 C   0  0  0  0  0  0  0  0  0  0  0  0
   -3.6562    2.3067    0.1146 C   0  0  0  0  0  0  0  0  0  0  0  0
   -5.0531    2.2857   -0.3045 C   0  0  0  0  0  0  0  0  0  0  0  0
   -5.3945    1.1634   -1.1651 C   0  0  0  0  0  0  0  0  0  0  0  0
   -6.5353    1.2587   -1.9524 C   0  0  0  0  0  0  0  0  0  0  0  0
   -6.9309    0.2403   -2.8053 C   0  0  0  0  0  0  0  0  0  0  0  0
   -6.1588   -0.9143   -2.7853 C   0  0  0  0  0  0  0  0  0  0  0  0
   -1.4360    1.4230    0.3134 C   0  0  0  0  0  0  0  0  0  0  0  0
   -0.9950    2.7182    0.5993 C   0  0  0  0  0  0  0  0  0  0  0  0
   -1.8418    3.8128    0.6866 C   0  0  0  0  0  0  0  0  0  0  0  0
   -3.1820    3.5674    0.4610 C   0  0  0  0  0  0  0  0  0  0  0  0
   -1.5151   -0.8873    1.7982 O   0  0  0  0  0  0  0  0  0  0  0  0
   -0.4638    0.5072    0.1805 O   0  0  0  0  0  0  0  0  0  0  0  0
   -0.2064   -0.4766    1.2339 B   0  0  0  0  0  0  0  0  0  0  0  0
    1.8311   -3.3424    1.2666 C   0  0  0  0  0  0  0  0  0  0  0  0
    1.7119   -2.0063    0.8823 C   0  0  0  0  0  0  0  0  0  0  0  0
    2.8815   -1.2317    0.6211 C   0  0  0  0  0  0  0  0  0  0  0  0
    4.0542   -2.0160    0.4388 C   0  0  0  0  0  0  0  0  0  0  0  0
    4.1333   -3.3533    0.8328 C   0  0  0  0  0  0  0  0  0  0  0  0
    3.0386   -4.0285    1.3258 C   0  0  0  0  0  0  0  0  0  0  0  0
    2.9953    0.2068    0.4679 C   0  0  0  0  0  0  0  0  0  0  0  0
    4.0422    0.6541   -0.3862 C   0  0  0  0  0  0  0  0  0  0  0  0
    5.0412   -0.2099   -0.8947 C   0  0  0  0  0  0  0  0  0  0  0  0
    2.3638    1.2172    1.2696 C   0  0  0  0  0  0  0  0  0  0  0  0
    2.8211    2.5625    1.1827 C   0  0  0  0  0  0  0  0  0  0  0  0
    3.5102    3.0517   -0.0040 C   0  0  0  0  0  0  0  0  0  0  0  0
    4.1790    2.0126   -0.7699 C   0  0  0  0  0  0  0  0  0  0  0  0
    5.0699    2.3924   -1.7631 C   0  0  0  0  0  0  0  0  0  0  0  0
    5.9390    1.4961   -2.3730 C   0  0  0  0  0  0  0  0  0  0  0  0
    5.9466    0.2069   -1.8629 C   0  0  0  0  0  0  0  0  0  0  0  0
    1.4151    1.0155    2.3221 C   0  0  0  0  0  0  0  0  0  0  0  0
    1.3515    1.9132    3.3830 C   0  0  0  0  0  0  0  0  0  0  0  0
    2.0319    3.1277    3.4013 C   0  0  0  0  0  0  0  0  0  0  0  0
    2.6712    3.4750    2.2274 C   0  0  0  0  0  0  0  0  0  0  0  0
    0.5650   -0.0047    2.3925 O   0  0  0  0  0  0  0  0  0  0  0  0
    0.4589   -1.6191    0.6450 O   0  0  0  0  0  0  0  0  0  0  0  0
    5.2147   -1.5215   -0.2908 C   0  0  0  0  0  0  0  0  0  0  0  0
    3.6017    4.2548   -0.2785 O   0  0  0  0  0  0  0  0  0  0  0  0
    6.2544   -2.1794   -0.4345 O   0  0  0  0  0  0  0  0  0  0  0  0
   -4.6456   -3.2582   -2.7411 O   0  0  0  0  0  0  0  0  0  0  0  0
   -5.8574    3.1877   -0.0403 O   0  0  0  0  0  0  0  0  0  0  0  0
   -2.4396   -5.6393    1.1443 C   0  0  0  0  0  0  0  0  0  0  0  0
   -1.6434   -5.8134    2.4392 C   0  0  0  0  0  0  0  0  0  0  0  0
   -1.7280   -6.4057    0.0210 C   0  0  0  0  0  0  0  0  0  0  0  0
   -3.8404   -6.2301    1.3628 C   0  0  0  0  0  0  0  0  0  0  0  0
   -1.3799    5.2337    0.9661 C   0  0  0  0  0  0  0  0  0  0  0  0
   -1.7513    6.1229   -0.2298 C   0  0  0  0  0  0  0  0  0  0  0  0
   -2.0940    5.7439    2.2264 C   0  0  0  0  0  0  0  0  0  0  0  0
    0.1282    5.3301    1.1859 C   0  0  0  0  0  0  0  0  0  0  0  0
   -8.1476    0.3245   -3.7139 C   0  0  0  0  0  0  0  0  0  0  0  0
   -7.6999    0.1256   -5.1686 C   0  0  0  0  0  0  0  0  0  0  0  0
   -8.8618    1.6748   -3.6106 C   0  0  0  0  0  0  0  0  0  0  0  0
   -9.1416   -0.7793   -3.3259 C   0  0  0  0  0  0  0  0  0  0  0  0
    3.0947   -5.4555    1.8477 C   0  0  0  0  0  0  0  0  0  0  0  0
    2.2619   -6.3659    0.9370 C   0  0  0  0  0  0  0  0  0  0  0  0
    2.5270   -5.4851    3.2732 C   0  0  0  0  0  0  0  0  0  0  0  0
    4.5262   -5.9989    1.8939 C   0  0  0  0  0  0  0  0  0  0  0  0
    2.0297    3.9884    4.6549 C   0  0  0  0  0  0  0  0  0  0  0  0
    2.6922    3.1806    5.7810 C   0  0  0  0  0  0  0  0  0  0  0  0
    2.8159    5.2887    4.4648 C   0  0  0  0  0  0  0  0  0  0  0  0
    0.5964    4.3497    5.0650 C   0  0  0  0  0  0  0  0  0  0  0  0
    6.8681    1.9703   -3.4794 C   0  0  0  0  0  0  0  0  0  0  0  0
    7.8225    3.0321   -2.9151 C   0  0  0  0  0  0  0  0  0  0  0  0
    7.7040    0.8297   -4.0668 C   0  0  0  0  0  0  0  0  0  0  0  0
    6.0274    2.5813   -4.6090 C   0  0  0  0  0  0  0  0  0  0  0  0
    8.3164    1.2051   -4.8871 H   0  0  0  0  0  0  0  0  0  0  0  0
    7.0617    0.0413   -4.4519 H   0  0  0  0  0  0  0  0  0  0  0  0
    8.3663    0.4059   -3.3158 H   0  0  0  0  0  0  0  0  0  0  0  0
    8.4985    3.3907   -3.6916 H   0  0  0  0  0  0  0  0  0  0  0  0
    8.4150    2.6087   -2.1064 H   0  0  0  0  0  0  0  0  0  0  0  0
    7.2685    3.8796   -2.5211 H   0  0  0  0  0  0  0  0  0  0  0  0
    6.6696    2.9330   -5.4167 H   0  0  0  0  0  0  0  0  0  0  0  0
    5.4398    3.4198   -4.2464 H   0  0  0  0  0  0  0  0  0  0  0  0
    5.3428    1.8362   -5.0088 H   0  0  0  0  0  0  0  0  0  0  0  0
    2.8104    5.8627    5.3918 H   0  0  0  0  0  0  0  0  0  0  0  0
    2.3694    5.8981    3.6832 H   0  0  0  0  0  0  0  0  0  0  0  0
    3.8489    5.0794    4.1974 H   0  0  0  0  0  0  0  0  0  0  0  0
    0.5995    4.9000    6.0064 H   0  0  0  0  0  0  0  0  0  0  0  0
   -0.0118    3.4586    5.1893 H   0  0  0  0  0  0  0  0  0  0  0  0
    0.1346    4.9733    4.3039 H   0  0  0  0  0  0  0  0  0  0  0  0
    2.7248    3.7615    6.7032 H   0  0  0  0  0  0  0  0  0  0  0  0
    3.7098    2.9147    5.5011 H   0  0  0  0  0  0  0  0  0  0  0  0
    2.1422    2.2626    5.9680 H   0  0  0  0  0  0  0  0  0  0  0  0
   -1.7526    6.7480    2.4795 H   0  0  0  0  0  0  0  0  0  0  0  0
   -1.8849    5.0819    3.0638 H   0  0  0  0  0  0  0  0  0  0  0  0
   -3.1706    5.7732    2.0804 H   0  0  0  0  0  0  0  0  0  0  0  0
   -1.4343    7.1502   -0.0500 H   0  0  0  0  0  0  0  0  0  0  0  0
   -2.8237    6.1179   -0.4066 H   0  0  0  0  0  0  0  0  0  0  0  0
   -1.2554    5.7599   -1.1272 H   0  0  0  0  0  0  0  0  0  0  0  0
    0.4046    6.3605    1.4120 H   0  0  0  0  0  0  0  0  0  0  0  0
    0.6793    5.0215    0.3017 H   0  0  0  0  0  0  0  0  0  0  0  0
    0.4360    4.6993    2.0137 H   0  0  0  0  0  0  0  0  0  0  0  0
  -10.0229   -0.7434   -3.9667 H   0  0  0  0  0  0  0  0  0  0  0  0
   -9.4577   -0.6499   -2.2926 H   0  0  0  0  0  0  0  0  0  0  0  0
   -8.6865   -1.7613   -3.4203 H   0  0  0  0  0  0  0  0  0  0  0  0
   -9.7160    1.6933   -4.2879 H   0  0  0  0  0  0  0  0  0  0  0  0
   -8.1926    2.4873   -3.8833 H   0  0  0  0  0  0  0  0  0  0  0  0
   -9.2250    1.8450   -2.6000 H   0  0  0  0  0  0  0  0  0  0  0  0
   -8.5552    0.1757   -5.8428 H   0  0  0  0  0  0  0  0  0  0  0  0
   -7.2153   -0.8381   -5.2974 H   0  0  0  0  0  0  0  0  0  0  0  0
   -6.9904    0.9014   -5.4494 H   0  0  0  0  0  0  0  0  0  0  0  0
    2.2895   -7.3955    1.2942 H   0  0  0  0  0  0  0  0  0  0  0  0
    2.6543   -6.3382   -0.0776 H   0  0  0  0  0  0  0  0  0  0  0  0
    1.2275   -6.0399    0.9077 H   0  0  0  0  0  0  0  0  0  0  0  0
    2.5221   -6.5033    3.6631 H   0  0  0  0  0  0  0  0  0  0  0  0
    1.5114   -5.1022    3.2964 H   0  0  0  0  0  0  0  0  0  0  0  0
    3.1348   -4.8640    3.9282 H   0  0  0  0  0  0  0  0  0  0  0  0
    4.5272   -6.9994    2.3272 H   0  0  0  0  0  0  0  0  0  0  0  0
    5.1610   -5.3598    2.5030 H   0  0  0  0  0  0  0  0  0  0  0  0
    4.9500   -6.0610    0.8948 H   0  0  0  0  0  0  0  0  0  0  0  0
   -1.5770   -6.8713    2.6955 H   0  0  0  0  0  0  0  0  0  0  0  0
   -2.1248   -5.2909    3.2628 H   0  0  0  0  0  0  0  0  0  0  0  0
   -0.6338   -5.4299    2.3258 H   0  0  0  0  0  0  0  0  0  0  0  0
   -3.7716   -7.2820    1.6417 H   0  0  0  0  0  0  0  0  0  0  0  0
   -4.4401   -6.1505    0.4605 H   0  0  0  0  0  0  0  0  0  0  0  0
   -4.3525   -5.6923    2.1585 H   0  0  0  0  0  0  0  0  0  0  0  0
   -1.5483   -7.4405    0.3138 H   0  0  0  0  0  0  0  0  0  0  0  0
   -0.7744   -5.9345   -0.2049 H   0  0  0  0  0  0  0  0  0  0  0  0
   -2.3247   -6.4021   -0.8868 H   0  0  0  0  0  0  0  0  0  0  0  0
   -3.7155   -4.6101   -1.0475 H   0  0  0  0  0  0  0  0  0  0  0  0
   -1.4326   -3.2740    2.3267 H   0  0  0  0  0  0  0  0  0  0  0  0
   -6.4115   -1.7713   -3.3947 H   0  0  0  0  0  0  0  0  0  0  0  0
   -7.0928    2.1786   -1.8606 H   0  0  0  0  0  0  0  0  0  0  0  0
   -3.9184    4.3579    0.4880 H   0  0  0  0  0  0  0  0  0  0  0  0
    0.0693    2.8251    0.7334 H   0  0  0  0  0  0  0  0  0  0  0  0
    0.6945    1.6262    4.1907 H   0  0  0  0  0  0  0  0  0  0  0  0
    3.1059    4.4490    2.0685 H   0  0  0  0  0  0  0  0  0  0  0  0
    0.8960   -3.8364    1.4817 H   0  0  0  0  0  0  0  0  0  0  0  0
    5.0936   -3.8242    0.6930 H   0  0  0  0  0  0  0  0  0  0  0  0
    5.0795    3.4446   -2.0125 H   0  0  0  0  0  0  0  0  0  0  0  0
    6.6692   -0.5297   -2.1803 H   0  0  0  0  0  0  0  0  0  0  0  0
  1  2  2  0  0  0  0
  1131  1  0  0  0  0
  2  3  1  0  0  0  0
  2 22  1  0  0  0  0
  3  4  2  0  0  0  0
  4  5  1  0  0  0  0
  5  6  2  0  0  0  0
  5130  1  0  0  0  0
  6 52  1  0  0  0  0
  6  1  1  0  0  0  0
  7  3  1  0  0  0  0
  7  8  1  0  0  0  0
  7 11  1  0  0  0  0
  8  9  2  0  0  0  0
  9 10  1  0  0  0  0
 10  4  1  0  0  0  0
 10 50  2  0  0  0  0
 11 12  2  0  0  0  0
 11 18  1  0  0  0  0
 13 14  1  0  0  0  0
 13 12  1  0  0  0  0
 13 51  2  0  0  0  0
 14  8  1  0  0  0  0
 14 15  2  0  0  0  0
 15 16  1  0  0  0  0
 15133  1  0  0  0  0
 16 60  1  0  0  0  0
 16 17  2  0  0  0  0
 17  9  1  0  0  0  0
 17132  1  0  0  0  0
 18 19  2  0  0  0  0
 18 23  1  0  0  0  0
 19 20  1  0  0  0  0
 19135  1  0  0  0  0
 20 56  1  0  0  0  0
 20 21  2  0  0  0  0
 21 12  1  0  0  0  0
 21134  1  0  0  0  0
 24 23  1  0  0  0  0
 24 22  1  0  0  0  0
 25 26  2  0  0  0  0
 25138  1  0  0  0  0
 26 27  1  0  0  0  0
 26 46  1  0  0  0  0
 27 28  2  0  0  0  0
 28 29  1  0  0  0  0
 28 47  1  0  0  0  0
 29 30  2  0  0  0  0
 29139  1  0  0  0  0
 30 64  1  0  0  0  0
 30 25  1  0  0  0  0
 31 27  1  0  0  0  0
 31 32  1  0  0  0  0
 32 33  2  0  0  0  0
 34 35  2  0  0  0  0
 34 41  1  0  0  0  0
 34 31  1  0  0  0  0
 36 37  1  0  0  0  0
 36 35  1  0  0  0  0
 36 48  2  0  0  0  0
 37 32  1  0  0  0  0
 37 38  2  0  0  0  0
 38 39  1  0  0  0  0
 38140  1  0  0  0  0
 39 72  1  0  0  0  0
 39 40  2  0  0  0  0
 40 33  1  0  0  0  0
 40141  1  0  0  0  0
 41 42  2  0  0  0  0
 41 45  1  0  0  0  0
 42 43  1  0  0  0  0
 42136  1  0  0  0  0
 43 68  1  0  0  0  0
 43 44  2  0  0  0  0
 44 35  1  0  0  0  0
 44137  1  0  0  0  0
 45 24  1  0  0  0  0
 46 24  1  0  0  0  0
 47 33  1  0  0  0  0
 47 49  2  0  0  0  0
 52 53  1  0  0  0  0
 52 54  1  0  0  0  0
 52 55  1  0  0  0  0
 53121  1  0  0  0  0
 53122  1  0  0  0  0
 53123  1  0  0  0  0
 54127  1  0  0  0  0
 54128  1  0  0  0  0
 54129  1  0  0  0  0
 55124  1  0  0  0  0
 55125  1  0  0  0  0
 55126  1  0  0  0  0
 56 57  1  0  0  0  0
 56 58  1  0  0  0  0
 56 59  1  0  0  0  0
 57 97  1  0  0  0  0
 57 98  1  0  0  0  0
 57 99  1  0  0  0  0
 58 94  1  0  0  0  0
 58 95  1  0  0  0  0
 58 96  1  0  0  0  0
 59100  1  0  0  0  0
 59101  1  0  0  0  0
 59102  1  0  0  0  0
 60 61  1  0  0  0  0
 60 62  1  0  0  0  0
 60 63  1  0  0  0  0
 61109  1  0  0  0  0
 61110  1  0  0  0  0
 61111  1  0  0  0  0
 62106  1  0  0  0  0
 62107  1  0  0  0  0
 62108  1  0  0  0  0
 63103  1  0  0  0  0
 63104  1  0  0  0  0
 63105  1  0  0  0  0
 64 65  1  0  0  0  0
 64 66  1  0  0  0  0
 64 67  1  0  0  0  0
 65112  1  0  0  0  0
 65113  1  0  0  0  0
 65114  1  0  0  0  0
 66115  1  0  0  0  0
 66116  1  0  0  0  0
 66117  1  0  0  0  0
 67118  1  0  0  0  0
 67119  1  0  0  0  0
 67120  1  0  0  0  0
 68 69  1  0  0  0  0
 68 70  1  0  0  0  0
 68 71  1  0  0  0  0
 69 91  1  0  0  0  0
 69 92  1  0  0  0  0
 69 93  1  0  0  0  0
 70 85  1  0  0  0  0
 70 86  1  0  0  0  0
 70 87  1  0  0  0  0
 71 88  1  0  0  0  0
 71 89  1  0  0  0  0
 71 90  1  0  0  0  0
 72 73  1  0  0  0  0
 72 74  1  0  0  0  0
 72 75  1  0  0  0  0
 73 79  1  0  0  0  0
 73 80  1  0  0  0  0
 73 81  1  0  0  0  0
 74 76  1  0  0  0  0
 74 77  1  0  0  0  0
 74 78  1  0  0  0  0
 75 82  1  0  0  0  0
 75 83  1  0  0  0  0
 75 84  1  0  0  0  0
M  CHG  1   1  -2
M  END
