
 OpenBabel11122409293D

141152  0  0  0  0  0  0  0  0999 V2000
   -2.0401   -3.0195    0.4154 C   0  0  0  0  0  0  0  0  0  0  0  0
   -2.0316   -1.6309    0.0900 C   0  0  0  0  0  0  0  0  0  0  0  0
   -2.9803   -1.1883   -0.9301 C   0  0  0  0  0  0  0  0  0  0  0  0
   -3.5981   -2.2069   -1.7270 C   0  0  0  0  0  0  0  0  0  0  0  0
   -3.4716   -3.5500   -1.4229 C   0  0  0  0  0  0  0  0  0  0  0  0
   -2.7823   -3.9874   -0.3089 C   0  0  0  0  0  0  0  0  0  0  0  0
   -3.4975    0.2453   -1.2860 C   0  0  1  0  0  0  0  0  0  0  0  0
   -5.0343    0.1658   -1.5941 C   0  0  0  0  0  0  0  0  0  0  0  0
   -5.5026   -0.8519   -2.4332 C   0  0  0  0  0  0  0  0  0  0  0  0
   -4.5811   -1.9074   -2.7958 C   0  0  0  0  0  0  0  0  0  0  0  0
   -3.1535    1.4426   -0.3808 C   0  0  0  0  0  0  0  0  0  0  0  0
   -4.1796    2.2900    0.1356 C   0  0  0  0  0  0  0  0  0  0  0  0
   -5.6002    2.0883   -0.1623 C   0  0  0  0  0  0  0  0  0  0  0  0
   -6.0019    1.0344   -1.0646 C   0  0  0  0  0  0  0  0  0  0  0  0
   -7.3715    0.8851   -1.3646 C   0  0  0  0  0  0  0  0  0  0  0  0
   -7.8325   -0.1317   -2.2125 C   0  0  0  0  0  0  0  0  0  0  0  0
   -6.8654   -0.9873   -2.7612 C   0  0  0  0  0  0  0  0  0  0  0  0
   -1.8157    1.7774   -0.0805 C   0  0  0  0  0  0  0  0  0  0  0  0
   -1.5519    2.8964    0.7296 C   0  0  0  0  0  0  0  0  0  0  0  0
   -2.5753    3.7189    1.2509 C   0  0  0  0  0  0  0  0  0  0  0  0
   -3.8776    3.3907    0.9308 C   0  0  0  0  0  0  0  0  0  0  0  0
   -1.1185   -0.8500    0.7966 O   0  0  0  0  0  0  0  0  0  0  0  0
   -0.7909    1.0403   -0.5869 O   0  0  0  0  0  0  0  0  0  0  0  0
   -0.0639    0.0486    0.2032 B   0  5  1  0  0  0  0  0  0  0  0  0
    1.4148   -2.8598    0.2185 C   0  0  0  0  0  0  0  0  0  0  0  0
    1.7755   -1.5639   -0.1931 C   0  0  0  0  0  0  0  0  0  0  0  0
    3.1291   -1.1724   -0.1320 C   0  0  0  0  0  0  0  0  0  0  0  0
    4.0782   -2.1375    0.3219 C   0  0  0  0  0  0  0  0  0  0  0  0
    3.6814   -3.4074    0.7289 C   0  0  0  0  0  0  0  0  0  0  0  0
    2.3577   -3.7993    0.6930 C   0  0  0  0  0  0  0  0  0  0  0  0
    3.5782    0.2242   -0.5988 C   0  0  2  0  0  0  0  0  0  0  0  0
    5.1422    0.3648   -0.5947 C   0  0  0  0  0  0  0  0  0  0  0  0
    6.0348   -0.6283   -0.1598 C   0  0  0  0  0  0  0  0  0  0  0  0
    2.9599    1.5011    0.0600 C   0  0  0  0  0  0  0  0  0  0  0  0
    3.6810    2.6929   -0.2709 C   0  0  0  0  0  0  0  0  0  0  0  0
    4.8314    2.7032   -1.2069 C   0  0  0  0  0  0  0  0  0  0  0  0
    5.7117    1.5697   -1.0209 C   0  0  0  0  0  0  0  0  0  0  0  0
    7.1042    1.7696   -1.0665 C   0  0  0  0  0  0  0  0  0  0  0  0
    7.9933    0.7798   -0.6224 C   0  0  0  0  0  0  0  0  0  0  0  0
    7.4300   -0.4222   -0.1704 C   0  0  0  0  0  0  0  0  0  0  0  0
    1.8319    1.6417    0.9771 C   0  0  0  0  0  0  0  0  0  0  0  0
    1.7542    2.8609    1.7147 C   0  0  0  0  0  0  0  0  0  0  0  0
    2.6035    3.9728    1.4758 C   0  0  0  0  0  0  0  0  0  0  0  0
    3.4832    3.8779    0.4143 C   0  0  0  0  0  0  0  0  0  0  0  0
    0.8204    0.7154    1.2271 O   0  0  0  0  0  0  0  0  0  0  0  0
    0.8348   -0.7045   -0.6696 O   0  0  0  0  0  0  0  0  0  0  0  0
    5.5203   -1.8787    0.3484 C   0  0  0  0  0  0  0  0  0  0  0  0
    5.2436    3.7420   -1.7076 O   0  0  0  0  0  0  0  0  0  0  0  0
    6.2990   -2.7269    0.7693 O   0  0  0  0  0  0  0  0  0  0  0  0
   -4.8834   -2.7380   -3.6443 O   0  0  0  0  0  0  0  0  0  0  0  0
   -6.4507    2.8241    0.3250 O   0  0  0  0  0  0  0  0  0  0  0  0
   -2.9320   -5.4907    0.0515 C   0  0  0  0  0  0  0  0  0  0  0  0
   -2.1846   -5.8820    1.3314 C   0  0  0  0  0  0  0  0  0  0  0  0
   -2.4369   -6.3918   -1.1085 C   0  0  0  0  0  0  0  0  0  0  0  0
   -4.4277   -5.8026    0.3134 C   0  0  0  0  0  0  0  0  0  0  0  0
   -2.2681    4.9409    2.1347 C   0  0  0  0  0  0  0  0  0  0  0  0
   -3.4984    5.8200    2.4873 C   0  0  0  0  0  0  0  0  0  0  0  0
   -1.7052    4.4224    3.4708 C   0  0  0  0  0  0  0  0  0  0  0  0
   -1.2838    5.8557    1.3815 C   0  0  0  0  0  0  0  0  0  0  0  0
   -9.3354   -0.3686   -2.4922 C   0  0  0  0  0  0  0  0  0  0  0  0
   -9.6127   -0.2242   -4.0000 C   0  0  0  0  0  0  0  0  0  0  0  0
  -10.2609    0.6217   -1.7403 C   0  0  0  0  0  0  0  0  0  0  0  0
   -9.7230   -1.7918   -2.0255 C   0  0  0  0  0  0  0  0  0  0  0  0
    1.9429   -5.2136    1.1369 C   0  0  0  0  0  0  0  0  0  0  0  0
    1.2228   -5.8969   -0.0415 C   0  0  0  0  0  0  0  0  0  0  0  0
    1.0566   -5.0773    2.3899 C   0  0  0  0  0  0  0  0  0  0  0  0
    3.1181   -6.1477    1.5329 C   0  0  0  0  0  0  0  0  0  0  0  0
    2.6779    5.2732    2.3231 C   0  0  0  0  0  0  0  0  0  0  0  0
    4.0932    5.3788    2.9455 C   0  0  0  0  0  0  0  0  0  0  0  0
    2.4318    6.5340    1.4542 C   0  0  0  0  0  0  0  0  0  0  0  0
    1.6905    5.2871    3.4954 C   0  0  0  0  0  0  0  0  0  0  0  0
    9.5138    1.0601   -0.5785 C   0  0  0  0  0  0  0  0  0  0  0  0
    9.7820    2.3028    0.3034 C   0  0  0  0  0  0  0  0  0  0  0  0
   10.3331   -0.1086    0.0253 C   0  0  0  0  0  0  0  0  0  0  0  0
   10.0331    1.3159   -2.0055 C   0  0  0  0  0  0  0  0  0  0  0  0
   11.4167    0.1395    0.0504 H   0  0  0  0  0  0  0  0  0  0  0  0
   10.2173   -1.0347   -0.5770 H   0  0  0  0  0  0  0  0  0  0  0  0
   10.0184   -0.3127    1.0728 H   0  0  0  0  0  0  0  0  0  0  0  0
   10.8706    2.5216    0.3585 H   0  0  0  0  0  0  0  0  0  0  0  0
    9.4100    2.1331    1.3376 H   0  0  0  0  0  0  0  0  0  0  0  0
    9.2874    3.2119   -0.0954 H   0  0  0  0  0  0  0  0  0  0  0  0
   11.1239    1.5311   -1.9925 H   0  0  0  0  0  0  0  0  0  0  0  0
    9.5227    2.1830   -2.4735 H   0  0  0  0  0  0  0  0  0  0  0  0
    9.8613    0.4213   -2.6421 H   0  0  0  0  0  0  0  0  0  0  0  0
    2.4882    7.4545    2.0745 H   0  0  0  0  0  0  0  0  0  0  0  0
    1.4418    6.5119    0.9683 H   0  0  0  0  0  0  0  0  0  0  0  0
    3.1872    6.6457    0.6505 H   0  0  0  0  0  0  0  0  0  0  0  0
    1.8114    6.2065    4.1089 H   0  0  0  0  0  0  0  0  0  0  0  0
    1.8330    4.4079    4.1595 H   0  0  0  0  0  0  0  0  0  0  0  0
    0.6751    5.3024    3.1058 H   0  0  0  0  0  0  0  0  0  0  0  0
    4.1843    6.2932    3.5714 H   0  0  0  0  0  0  0  0  0  0  0  0
    4.8890    5.4374    2.1747 H   0  0  0  0  0  0  0  0  0  0  0  0
    4.3025    4.4956    3.5873 H   0  0  0  0  0  0  0  0  0  0  0  0
   -1.4166    5.2645    4.1366 H   0  0  0  0  0  0  0  0  0  0  0  0
   -0.8406    3.7550    3.3237 H   0  0  0  0  0  0  0  0  0  0  0  0
   -2.4742    3.8181    3.9990 H   0  0  0  0  0  0  0  0  0  0  0  0
   -3.1931    6.6897    3.1095 H   0  0  0  0  0  0  0  0  0  0  0  0
   -4.2526    5.2531    3.0743 H   0  0  0  0  0  0  0  0  0  0  0  0
   -3.9777    6.2197    1.5668 H   0  0  0  0  0  0  0  0  0  0  0  0
   -0.9971    6.7330    2.0007 H   0  0  0  0  0  0  0  0  0  0  0  0
   -1.7445    6.2288    0.4407 H   0  0  0  0  0  0  0  0  0  0  0  0
   -0.3674    5.3113    1.0995 H   0  0  0  0  0  0  0  0  0  0  0  0
  -10.8023   -1.9881   -2.2063 H   0  0  0  0  0  0  0  0  0  0  0  0
   -9.5276   -1.9102   -0.9371 H   0  0  0  0  0  0  0  0  0  0  0  0
   -9.1533   -2.5762   -2.5645 H   0  0  0  0  0  0  0  0  0  0  0  0
  -11.3301    0.4069   -1.9573 H   0  0  0  0  0  0  0  0  0  0  0  0
  -10.0625    1.6704   -2.0482 H   0  0  0  0  0  0  0  0  0  0  0  0
  -10.1256    0.5328   -0.6395 H   0  0  0  0  0  0  0  0  0  0  0  0
  -10.6881   -0.4042   -4.2186 H   0  0  0  0  0  0  0  0  0  0  0  0
   -9.0213   -0.9523   -4.5927 H   0  0  0  0  0  0  0  0  0  0  0  0
   -9.3537    0.8011   -4.3413 H   0  0  0  0  0  0  0  0  0  0  0  0
    0.8529   -6.9056    0.2432 H   0  0  0  0  0  0  0  0  0  0  0  0
    1.9167   -6.0112   -0.9029 H   0  0  0  0  0  0  0  0  0  0  0  0
    0.3720   -5.2928   -0.3972 H   0  0  0  0  0  0  0  0  0  0  0  0
    0.6766   -6.0686    2.7197 H   0  0  0  0  0  0  0  0  0  0  0  0
    0.2057   -4.3973    2.2262 H   0  0  0  0  0  0  0  0  0  0  0  0
    1.6426   -4.6381    3.2259 H   0  0  0  0  0  0  0  0  0  0  0  0
    2.7391   -7.1505    1.8289 H   0  0  0  0  0  0  0  0  0  0  0  0
    3.6835   -5.7439    2.4005 H   0  0  0  0  0  0  0  0  0  0  0  0
    3.8166   -6.2951    0.6804 H   0  0  0  0  0  0  0  0  0  0  0  0
   -2.3517   -6.9526    1.5805 H   0  0  0  0  0  0  0  0  0  0  0  0
   -2.5137   -5.2689    2.1975 H   0  0  0  0  0  0  0  0  0  0  0  0
   -1.1162   -5.7599    1.1757 H   0  0  0  0  0  0  0  0  0  0  0  0
   -4.5674   -6.8718    0.5850 H   0  0  0  0  0  0  0  0  0  0  0  0
   -5.0622   -5.6161   -0.5771 H   0  0  0  0  0  0  0  0  0  0  0  0
   -4.8150   -5.1778    1.1470 H   0  0  0  0  0  0  0  0  0  0  0  0
   -2.5419   -7.4663   -0.8448 H   0  0  0  0  0  0  0  0  0  0  0  0
   -1.3762   -6.1993   -1.3482 H   0  0  0  0  0  0  0  0  0  0  0  0
   -3.0165   -6.2321   -2.0404 H   0  0  0  0  0  0  0  0  0  0  0  0
   -4.0314   -4.2656   -2.0083 H   0  0  0  0  0  0  0  0  0  0  0  0
   -1.4498   -3.3344    1.2556 H   0  0  0  0  0  0  0  0  0  0  0  0
   -7.1810   -1.8149   -3.3821 H   0  0  0  0  0  0  0  0  0  0  0  0
   -8.0725    1.5661   -0.9084 H   0  0  0  0  0  0  0  0  0  0  0  0
   -4.6870    3.9995    1.2956 H   0  0  0  0  0  0  0  0  0  0  0  0
   -0.5402    3.1377    0.9279 H   0  0  0  0  0  0  0  0  0  0  0  0
    1.0129    2.9221    2.4905 H   0  0  0  0  0  0  0  0  0  0  0  0
    4.1281    4.7151    0.1882 H   0  0  0  0  0  0  0  0  0  0  0  0
    0.3969   -3.1415    0.1432 H   0  0  0  0  0  0  0  0  0  0  0  0
    4.4347   -4.0995    1.0652 H   0  0  0  0  0  0  0  0  0  0  0  0
    7.4914    2.7322   -1.3715 H   0  0  0  0  0  0  0  0  0  0  0  0
    8.0667   -1.2120    0.1963 H   0  0  0  0  0  0  0  0  0  0  0  0
  1  2  2  0  0  0  0
  1131  1  0  0  0  0
  2  3  1  0  0  0  0
  2 22  1  0  0  0  0
  3  4  2  0  0  0  0
  4  5  1  0  0  0  0
  5  6  2  0  0  0  0
  5130  1  0  0  0  0
  6 52  1  0  0  0  0
  6  1  1  0  0  0  0
  7  3  1  1  0  0  0
  7  8  1  0  0  0  0
  7 11  1  0  0  0  0
  8  9  2  0  0  0  0
  9 10  1  0  0  0  0
 10  4  1  0  0  0  0
 10 50  2  0  0  0  0
 11 12  2  0  0  0  0
 11 18  1  0  0  0  0
 13 14  1  0  0  0  0
 13 12  1  0  0  0  0
 13 51  2  0  0  0  0
 14  8  1  0  0  0  0
 14 15  2  0  0  0  0
 15 16  1  0  0  0  0
 15133  1  0  0  0  0
 16 60  1  0  0  0  0
 16 17  2  0  0  0  0
 17  9  1  0  0  0  0
 17132  1  0  0  0  0
 18 19  2  0  0  0  0
 18 23  1  0  0  0  0
 19 20  1  0  0  0  0
 19135  1  0  0  0  0
 20 56  1  0  0  0  0
 20 21  2  0  0  0  0
 21 12  1  0  0  0  0
 21134  1  0  0  0  0
 24 23  1  6  0  0  0
 24 22  1  0  0  0  0
 25 26  2  0  0  0  0
 25138  1  0  0  0  0
 26 27  1  0  0  0  0
 26 46  1  0  0  0  0
 27 28  2  0  0  0  0
 28 29  1  0  0  0  0
 28 47  1  0  0  0  0
 29 30  2  0  0  0  0
 29139  1  0  0  0  0
 30 64  1  0  0  0  0
 30 25  1  0  0  0  0
 31 27  1  1  0  0  0
 31 32  1  0  0  0  0
 32 33  2  0  0  0  0
 34 35  2  0  0  0  0
 34 41  1  0  0  0  0
 34 31  1  0  0  0  0
 36 37  1  0  0  0  0
 36 35  1  0  0  0  0
 36 48  2  0  0  0  0
 37 32  1  0  0  0  0
 37 38  2  0  0  0  0
 38 39  1  0  0  0  0
 38140  1  0  0  0  0
 39 72  1  0  0  0  0
 39 40  2  0  0  0  0
 40 33  1  0  0  0  0
 40141  1  0  0  0  0
 41 42  2  0  0  0  0
 41 45  1  0  0  0  0
 42 43  1  0  0  0  0
 42136  1  0  0  0  0
 43 68  1  0  0  0  0
 43 44  2  0  0  0  0
 44 35  1  0  0  0  0
 44137  1  0  0  0  0
 45 24  1  0  0  0  0
 46 24  1  0  0  0  0
 47 33  1  0  0  0  0
 47 49  2  0  0  0  0
 52 53  1  0  0  0  0
 52 54  1  0  0  0  0
 52 55  1  0  0  0  0
 53121  1  0  0  0  0
 53122  1  0  0  0  0
 53123  1  0  0  0  0
 54127  1  0  0  0  0
 54128  1  0  0  0  0
 54129  1  0  0  0  0
 55124  1  0  0  0  0
 55125  1  0  0  0  0
 55126  1  0  0  0  0
 56 57  1  0  0  0  0
 56 58  1  0  0  0  0
 56 59  1  0  0  0  0
 57 97  1  0  0  0  0
 57 98  1  0  0  0  0
 57 99  1  0  0  0  0
 58 94  1  0  0  0  0
 58 95  1  0  0  0  0
 58 96  1  0  0  0  0
 59100  1  0  0  0  0
 59101  1  0  0  0  0
 59102  1  0  0  0  0
 60 61  1  0  0  0  0
 60 62  1  0  0  0  0
 60 63  1  0  0  0  0
 61109  1  0  0  0  0
 61110  1  0  0  0  0
 61111  1  0  0  0  0
 62106  1  0  0  0  0
 62107  1  0  0  0  0
 62108  1  0  0  0  0
 63103  1  0  0  0  0
 63104  1  0  0  0  0
 63105  1  0  0  0  0
 64 65  1  0  0  0  0
 64 66  1  0  0  0  0
 64 67  1  0  0  0  0
 65112  1  0  0  0  0
 65113  1  0  0  0  0
 65114  1  0  0  0  0
 66115  1  0  0  0  0
 66116  1  0  0  0  0
 66117  1  0  0  0  0
 67118  1  0  0  0  0
 67119  1  0  0  0  0
 67120  1  0  0  0  0
 68 69  1  0  0  0  0
 68 70  1  0  0  0  0
 68 71  1  0  0  0  0
 69 91  1  0  0  0  0
 69 92  1  0  0  0  0
 69 93  1  0  0  0  0
 70 85  1  0  0  0  0
 70 86  1  0  0  0  0
 70 87  1  0  0  0  0
 71 88  1  0  0  0  0
 71 89  1  0  0  0  0
 71 90  1  0  0  0  0
 72 73  1  0  0  0  0
 72 74  1  0  0  0  0
 72 75  1  0  0  0  0
 73 79  1  0  0  0  0
 73 80  1  0  0  0  0
 73 81  1  0  0  0  0
 74 76  1  0  0  0  0
 74 77  1  0  0  0  0
 74 78  1  0  0  0  0
 75 82  1  0  0  0  0
 75 83  1  0  0  0  0
 75 84  1  0  0  0  0
M  CHG  1  24  -1
M  END
