 energy: -55.130702412679 gnorm: 0.000503511907 xtb: 6.7.1 (edcfbbe)
          12102414533D

282304  0     0  0            999 V2000
   -2.9600   -2.8597    1.8976 C   0  0  0  0  0  0  0  0  0  0  0  0
   -3.4923   -1.7158    1.2912 C   0  0  0  0  0  0  0  0  0  0  0  0
   -4.1294   -1.8363    0.0200 C   0  0  0  0  0  0  0  0  0  0  0  0
   -4.4596   -3.1450   -0.4117 C   0  0  0  0  0  0  0  0  0  0  0  0
   -3.9324   -4.2497    0.2401 C   0  0  0  0  0  0  0  0  0  0  0  0
   -3.1398   -4.1267    1.3761 C   0  0  0  0  0  0  0  0  0  0  0  0
   -4.5144   -0.6823   -0.7531 C   0  0  0  0  0  0  0  0  0  0  0  0
   -5.6271   -0.8620   -1.6532 C   0  0  0  0  0  0  0  0  0  0  0  0
   -6.0858   -2.1520   -2.0121 C   0  0  0  0  0  0  0  0  0  0  0  0
   -5.4116   -3.3452   -1.5035 C   0  0  0  0  0  0  0  0  0  0  0  0
   -3.8519    0.6080   -0.7116 C   0  0  0  0  0  0  0  0  0  0  0  0
   -4.5266    1.7214   -1.2807 C   0  0  0  0  0  0  0  0  0  0  0  0
   -5.8639    1.5949   -1.8653 C   0  0  0  0  0  0  0  0  0  0  0  0
   -6.3197    0.2476   -2.1821 C   0  0  0  0  0  0  0  0  0  0  0  0
   -7.4276    0.0643   -2.9935 C   0  0  0  0  0  0  0  0  0  0  0  0
   -7.8814   -1.2004   -3.3416 C   0  0  0  0  0  0  0  0  0  0  0  0
   -7.1841   -2.2923   -2.8450 C   0  0  0  0  0  0  0  0  0  0  0  0
   -2.5146    0.8515   -0.2166 C   0  0  0  0  0  0  0  0  0  0  0  0
   -1.9614    2.1347   -0.3661 C   0  0  0  0  0  0  0  0  0  0  0  0
   -2.6469    3.2048   -0.9001 C   0  0  0  0  0  0  0  0  0  0  0  0
   -3.9401    2.9741   -1.3327 C   0  0  0  0  0  0  0  0  0  0  0  0
   -3.4413   -0.4923    1.9229 O   0  0  0  0  0  0  0  0  0  0  0  0
   -1.7135   -0.0483    0.4783 O   0  0  0  0  0  0  0  0  0  0  0  0
   -2.0456   -0.0173    1.9322 B   0  0  0  0  0  0  0  0  0  0  0  0
    0.4759   -2.1541    3.6465 C   0  0  0  0  0  0  0  0  0  0  0  0
    0.0598   -1.1387    2.7696 C   0  0  0  0  0  0  0  0  0  0  0  0
    0.9783   -0.6345    1.7790 C   0  0  0  0  0  0  0  0  0  0  0  0
    2.0061   -1.5647    1.4259 C   0  0  0  0  0  0  0  0  0  0  0  0
    2.3327   -2.6220    2.2656 C   0  0  0  0  0  0  0  0  0  0  0  0
    1.6455   -2.8603    3.4496 C   0  0  0  0  0  0  0  0  0  0  0  0
    1.0399    0.7272    1.2618 C   0  0  0  0  0  0  0  0  0  0  0  0
    2.0060    0.9661    0.2104 C   0  0  0  0  0  0  0  0  0  0  0  0
    2.7023   -0.0910   -0.4356 C   0  0  0  0  0  0  0  0  0  0  0  0
    0.4651    1.9073    1.9120 C   0  0  0  0  0  0  0  0  0  0  0  0
    1.1722    3.1469    1.8080 C   0  0  0  0  0  0  0  0  0  0  0  0
    2.1411    3.3852    0.7452 C   0  0  0  0  0  0  0  0  0  0  0  0
    2.3938    2.2785   -0.1654 C   0  0  0  0  0  0  0  0  0  0  0  0
    3.1931    2.4906   -1.2792 C   0  0  0  0  0  0  0  0  0  0  0  0
    3.7084    1.4424   -2.0269 C   0  0  0  0  0  0  0  0  0  0  0  0
    3.4899    0.1572   -1.5513 C   0  0  0  0  0  0  0  0  0  0  0  0
   -0.7553    2.0001    2.6908 C   0  0  0  0  0  0  0  0  0  0  0  0
   -0.8833    3.0372    3.6355 C   0  0  0  0  0  0  0  0  0  0  0  0
   -0.0358    4.1250    3.6710 C   0  0  0  0  0  0  0  0  0  0  0  0
    0.9396    4.1911    2.6898 C   0  0  0  0  0  0  0  0  0  0  0  0
   -1.9254    1.3194    2.4818 O   0  0  0  0  0  0  0  0  0  0  0  0
   -1.2621   -0.8463    2.8412 O   0  0  0  0  0  0  0  0  0  0  0  0
    2.7775   -1.3995    0.1982 C   0  0  0  0  0  0  0  0  0  0  0  0
    2.7372    4.4505    0.6421 O   0  0  0  0  0  0  0  0  0  0  0  0
    3.4988   -2.2869   -0.2385 O   0  0  0  0  0  0  0  0  0  0  0  0
   -5.6721   -4.4614   -1.9330 O   0  0  0  0  0  0  0  0  0  0  0  0
   -6.5514    2.5781   -2.1110 O   0  0  0  0  0  0  0  0  0  0  0  0
   -2.4191   -5.3294    2.0005 C   0  0  0  0  0  0  0  0  0  0  0  0
   -2.5359   -5.2886    3.5353 C   0  0  0  0  0  0  0  0  0  0  0  0
   -0.9386   -5.2635    1.5913 C   0  0  0  0  0  0  0  0  0  0  0  0
   -3.0144   -6.6638    1.5122 C   0  0  0  0  0  0  0  0  0  0  0  0
   -2.0591    4.6214   -0.9679 C   0  0  0  0  0  0  0  0  0  0  0  0
   -2.2375    5.1952   -2.3861 C   0  0  0  0  0  0  0  0  0  0  0  0
   -2.7902    5.5107    0.0530 C   0  0  0  0  0  0  0  0  0  0  0  0
   -0.5574    4.6287   -0.6361 C   0  0  0  0  0  0  0  0  0  0  0  0
   -9.1119   -1.4215   -4.2344 C   0  0  0  0  0  0  0  0  0  0  0  0
   -8.6985   -2.2180   -5.4857 C   0  0  0  0  0  0  0  0  0  0  0  0
   -9.7333   -0.0871   -4.6906 C   0  0  0  0  0  0  0  0  0  0  0  0
  -10.1755   -2.2090   -3.4470 C   0  0  0  0  0  0  0  0  0  0  0  0
    2.1040   -3.9082    4.4704 C   0  0  0  0  0  0  0  0  0  0  0  0
    1.3486   -5.2239    4.2409 C   0  0  0  0  0  0  0  0  0  0  0  0
    1.8244   -3.3929    5.8966 C   0  0  0  0  0  0  0  0  0  0  0  0
    3.6152   -4.1732    4.3390 C   0  0  0  0  0  0  0  0  0  0  0  0
   -0.1637    5.1936    4.7634 C   0  0  0  0  0  0  0  0  0  0  0  0
    0.4638    4.6369    6.0501 C   0  0  0  0  0  0  0  0  0  0  0  0
    0.5681    6.4928    4.3740 C   0  0  0  0  0  0  0  0  0  0  0  0
   -1.6450    5.5364    5.0115 C   0  0  0  0  0  0  0  0  0  0  0  0
    4.5829    1.7325   -3.2546 C   0  0  0  0  0  0  0  0  0  0  0  0
    5.8904    2.4026   -2.7971 C   0  0  0  0  0  0  0  0  0  0  0  0
    4.9300    0.4413   -4.0212 C   0  0  0  0  0  0  0  0  0  0  0  0
    3.8255    2.6716   -4.2128 C   0  0  0  0  0  0  0  0  0  0  0  0
    5.4975    0.6669   -4.9251 H   0  0  0  0  0  0  0  0  0  0  0  0
    4.0257   -0.0899   -4.3201 H   0  0  0  0  0  0  0  0  0  0  0  0
    5.5384   -0.2282   -3.4127 H   0  0  0  0  0  0  0  0  0  0  0  0
    6.5419    2.6112   -3.6468 H   0  0  0  0  0  0  0  0  0  0  0  0
    6.4330    1.7571   -2.1054 H   0  0  0  0  0  0  0  0  0  0  0  0
    5.6920    3.3457   -2.2874 H   0  0  0  0  0  0  0  0  0  0  0  0
    4.4113    2.8690   -5.1115 H   0  0  0  0  0  0  0  0  0  0  0  0
    3.6078    3.6302   -3.7422 H   0  0  0  0  0  0  0  0  0  0  0  0
    2.8782    2.2262   -4.5186 H   0  0  0  0  0  0  0  0  0  0  0  0
    0.4190    7.2636    5.1314 H   0  0  0  0  0  0  0  0  0  0  0  0
    0.1958    6.8801    3.4248 H   0  0  0  0  0  0  0  0  0  0  0  0
    1.6427    6.3312    4.2837 H   0  0  0  0  0  0  0  0  0  0  0  0
   -1.7403    6.3525    5.7285 H   0  0  0  0  0  0  0  0  0  0  0  0
   -2.1905    4.6866    5.4181 H   0  0  0  0  0  0  0  0  0  0  0  0
   -2.1322    5.8418    4.0849 H   0  0  0  0  0  0  0  0  0  0  0  0
    0.3470    5.3410    6.8735 H   0  0  0  0  0  0  0  0  0  0  0  0
    1.5284    4.4433    5.9135 H   0  0  0  0  0  0  0  0  0  0  0  0
   -0.0080    3.6964    6.3336 H   0  0  0  0  0  0  0  0  0  0  0  0
   -2.3970    6.5278    0.0392 H   0  0  0  0  0  0  0  0  0  0  0  0
   -2.6690    5.1157    1.0625 H   0  0  0  0  0  0  0  0  0  0  0  0
   -3.8581    5.5587   -0.1616 H   0  0  0  0  0  0  0  0  0  0  0  0
   -1.7848    6.1843   -2.4661 H   0  0  0  0  0  0  0  0  0  0  0  0
   -3.2902    5.2933   -2.6499 H   0  0  0  0  0  0  0  0  0  0  0  0
   -1.7641    4.5475   -3.1246 H   0  0  0  0  0  0  0  0  0  0  0  0
   -0.1344    5.6267   -0.7532 H   0  0  0  0  0  0  0  0  0  0  0  0
   -0.0040    3.9532   -1.2888 H   0  0  0  0  0  0  0  0  0  0  0  0
   -0.3922    4.3274    0.3962 H   0  0  0  0  0  0  0  0  0  0  0  0
  -11.0704   -2.3694   -4.0499 H   0  0  0  0  0  0  0  0  0  0  0  0
  -10.4679   -1.6674   -2.5466 H   0  0  0  0  0  0  0  0  0  0  0  0
   -9.7998   -3.1858   -3.1420 H   0  0  0  0  0  0  0  0  0  0  0  0
  -10.6036   -0.2611   -5.3250 H   0  0  0  0  0  0  0  0  0  0  0  0
   -9.0186    0.5023   -5.2659 H   0  0  0  0  0  0  0  0  0  0  0  0
  -10.0622    0.5055   -3.8362 H   0  0  0  0  0  0  0  0  0  0  0  0
   -9.5502   -2.3742   -6.1493 H   0  0  0  0  0  0  0  0  0  0  0  0
   -8.3007   -3.1970   -5.2189 H   0  0  0  0  0  0  0  0  0  0  0  0
   -7.9285   -1.6849   -6.0443 H   0  0  0  0  0  0  0  0  0  0  0  0
    1.6591   -5.9846    4.9585 H   0  0  0  0  0  0  0  0  0  0  0  0
    1.5442   -5.6086    3.2399 H   0  0  0  0  0  0  0  0  0  0  0  0
    0.2741   -5.0772    4.3449 H   0  0  0  0  0  0  0  0  0  0  0  0
    2.2554   -4.0597    6.6422 H   0  0  0  0  0  0  0  0  0  0  0  0
    0.7563   -3.3214    6.0984 H   0  0  0  0  0  0  0  0  0  0  0  0
    2.2575   -2.4030    6.0404 H   0  0  0  0  0  0  0  0  0  0  0  0
    3.9628   -4.8376    5.1296 H   0  0  0  0  0  0  0  0  0  0  0  0
    4.1789   -3.2436    4.4098 H   0  0  0  0  0  0  0  0  0  0  0  0
    3.8564   -4.6479    3.3881 H   0  0  0  0  0  0  0  0  0  0  0  0
   -2.0823   -6.1713    3.9881 H   0  0  0  0  0  0  0  0  0  0  0  0
   -3.5813   -5.2498    3.8417 H   0  0  0  0  0  0  0  0  0  0  0  0
   -2.0369   -4.4137    3.9487 H   0  0  0  0  0  0  0  0  0  0  0  0
   -2.5348   -7.5076    2.0103 H   0  0  0  0  0  0  0  0  0  0  0  0
   -2.8684   -6.7937    0.4397 H   0  0  0  0  0  0  0  0  0  0  0  0
   -4.0829   -6.7147    1.7246 H   0  0  0  0  0  0  0  0  0  0  0  0
   -0.3841   -6.1118    1.9922 H   0  0  0  0  0  0  0  0  0  0  0  0
   -0.4753   -4.3455    1.9533 H   0  0  0  0  0  0  0  0  0  0  0  0
   -0.8381   -5.2768    0.5058 H   0  0  0  0  0  0  0  0  0  0  0  0
   -4.1648   -5.2191   -0.1604 H   0  0  0  0  0  0  0  0  0  0  0  0
   -2.4075   -2.7159    2.8065 H   0  0  0  0  0  0  0  0  0  0  0  0
   -7.5012   -3.2887   -3.0944 H   0  0  0  0  0  0  0  0  0  0  0  0
   -7.9279    0.9428   -3.3567 H   0  0  0  0  0  0  0  0  0  0  0  0
   -4.5178    3.7810   -1.7457 H   0  0  0  0  0  0  0  0  0  0  0  0
   -0.9675    2.2714    0.0110 H   0  0  0  0  0  0  0  0  0  0  0  0
   -1.7277    2.9932    4.2976 H   0  0  0  0  0  0  0  0  0  0  0  0
    1.5463    5.0721    2.5875 H   0  0  0  0  0  0  0  0  0  0  0  0
   -0.1983   -2.4318    4.4358 H   0  0  0  0  0  0  0  0  0  0  0  0
    3.1649   -3.2415    1.9863 H   0  0  0  0  0  0  0  0  0  0  0  0
    3.4524    3.5041   -1.5279 H   0  0  0  0  0  0  0  0  0  0  0  0
    3.9796   -0.6827   -2.0094 H   0  0  0  0  0  0  0  0  0  0  0  0
   -0.9037   -3.0743    9.2431 C   0  0  0  0  0  0  0  0  0  0  0  0
   -1.0507   -1.6947    9.0313 C   0  0  0  0  0  0  0  0  0  0  0  0
   -1.6266   -1.2287    7.7976 C   0  0  0  0  0  0  0  0  0  0  0  0
   -2.1072   -2.2321    6.9162 C   0  0  0  0  0  0  0  0  0  0  0  0
   -1.9070   -3.5779    7.1737 C   0  0  0  0  0  0  0  0  0  0  0  0
   -1.3081   -4.0289    8.3363 C   0  0  0  0  0  0  0  0  0  0  0  0
   -1.8310    0.1640    7.4622 C   0  0  0  0  0  0  0  0  0  0  0  0
   -2.8058    0.4738    6.4422 C   0  0  0  0  0  0  0  0  0  0  0  0
   -3.2977   -0.5122    5.5612 C   0  0  0  0  0  0  0  0  0  0  0  0
   -2.9187   -1.9038    5.7474 C   0  0  0  0  0  0  0  0  0  0  0  0
   -1.1497    1.2839    8.0779 C   0  0  0  0  0  0  0  0  0  0  0  0
   -1.7423    2.5733    8.0273 C   0  0  0  0  0  0  0  0  0  0  0  0
   -2.9131    2.8358    7.1990 C   0  0  0  0  0  0  0  0  0  0  0  0
   -3.3096    1.7828    6.2773 C   0  0  0  0  0  0  0  0  0  0  0  0
   -4.1933    2.0810    5.2556 C   0  0  0  0  0  0  0  0  0  0  0  0
   -4.6364    1.1214    4.3607 C   0  0  0  0  0  0  0  0  0  0  0  0
   -4.1703   -0.1738    4.5393 C   0  0  0  0  0  0  0  0  0  0  0  0
    0.1511    1.2056    8.6799 C   0  0  0  0  0  0  0  0  0  0  0  0
    0.6613    2.3378    9.3307 C   0  0  0  0  0  0  0  0  0  0  0  0
    0.0054    3.5483    9.3830 C   0  0  0  0  0  0  0  0  0  0  0  0
   -1.1941    3.6496    8.7014 C   0  0  0  0  0  0  0  0  0  0  0  0
   -0.5991   -0.8763   10.0522 O   0  0  0  0  0  0  0  0  0  0  0  0
    0.9351    0.0676    8.6359 O   0  0  0  0  0  0  0  0  0  0  0  0
    0.8715   -0.7045    9.8955 B   0  0  0  0  0  0  0  0  0  0  0  0
    3.0302   -3.7366    9.5242 C   0  0  0  0  0  0  0  0  0  0  0  0
    2.7302   -2.3759    9.3471 C   0  0  0  0  0  0  0  0  0  0  0  0
    3.5899   -1.5567    8.5351 C   0  0  0  0  0  0  0  0  0  0  0  0
    4.4359   -2.2965    7.6529 C   0  0  0  0  0  0  0  0  0  0  0  0
    4.6721   -3.6495    7.8375 C   0  0  0  0  0  0  0  0  0  0  0  0
    4.0176   -4.3849    8.8108 C   0  0  0  0  0  0  0  0  0  0  0  0
    3.6719   -0.0988    8.5297 C   0  0  0  0  0  0  0  0  0  0  0  0
    4.2177    0.5069    7.3369 C   0  0  0  0  0  0  0  0  0  0  0  0
    4.6789   -0.2744    6.2484 C   0  0  0  0  0  0  0  0  0  0  0  0
    3.4879    0.7829    9.6784 C   0  0  0  0  0  0  0  0  0  0  0  0
    4.1267    2.0659    9.6545 C   0  0  0  0  0  0  0  0  0  0  0  0
    4.3900    2.7440    8.3863 C   0  0  0  0  0  0  0  0  0  0  0  0
    4.3532    1.9120    7.1938 C   0  0  0  0  0  0  0  0  0  0  0  0
    4.5982    2.4684    5.9470 C   0  0  0  0  0  0  0  0  0  0  0  0
    4.8117    1.6790    4.8236 C   0  0  0  0  0  0  0  0  0  0  0  0
    4.9359    0.3109    5.0201 C   0  0  0  0  0  0  0  0  0  0  0  0
    2.7556    0.5329   10.9096 C   0  0  0  0  0  0  0  0  0  0  0  0
    3.1970    1.1632   12.0902 C   0  0  0  0  0  0  0  0  0  0  0  0
    4.0956    2.2145   12.0773 C   0  0  0  0  0  0  0  0  0  0  0  0
    4.4518    2.7210   10.8341 C   0  0  0  0  0  0  0  0  0  0  0  0
    1.5146   -0.0299   11.0083 O   0  0  0  0  0  0  0  0  0  0  0  0
    1.5260   -2.0058    9.8541 O   0  0  0  0  0  0  0  0  0  0  0  0
    5.0121   -1.6735    6.4687 C   0  0  0  0  0  0  0  0  0  0  0  0
    4.6446    3.9385    8.3377 O   0  0  0  0  0  0  0  0  0  0  0  0
    5.7326   -2.2920    5.6995 O   0  0  0  0  0  0  0  0  0  0  0  0
   -3.3299   -2.7806    5.0028 O   0  0  0  0  0  0  0  0  0  0  0  0
   -3.5062    3.9040    7.2434 O   0  0  0  0  0  0  0  0  0  0  0  0
   -1.0841   -5.5298    8.5687 C   0  0  0  0  0  0  0  0  0  0  0  0
   -0.7607   -5.8279   10.0451 C   0  0  0  0  0  0  0  0  0  0  0  0
    0.0926   -5.9917    7.6980 C   0  0  0  0  0  0  0  0  0  0  0  0
   -2.3495   -6.3213    8.1863 C   0  0  0  0  0  0  0  0  0  0  0  0
    0.6114    4.7213   10.1636 C   0  0  0  0  0  0  0  0  0  0  0  0
   -0.2881    5.9702   10.1031 C   0  0  0  0  0  0  0  0  0  0  0  0
    0.7669    4.3030   11.6349 C   0  0  0  0  0  0  0  0  0  0  0  0
    1.9867    5.0841    9.5769 C   0  0  0  0  0  0  0  0  0  0  0  0
   -5.5315    1.5342    3.1800 C   0  0  0  0  0  0  0  0  0  0  0  0
   -6.1857    0.3148    2.5001 C   0  0  0  0  0  0  0  0  0  0  0  0
   -4.6633    2.2744    2.1489 C   0  0  0  0  0  0  0  0  0  0  0  0
   -6.6593    2.4641    3.6653 C   0  0  0  0  0  0  0  0  0  0  0  0
    4.3439   -5.8727    8.9980 C   0  0  0  0  0  0  0  0  0  0  0  0
    4.0945   -6.6271    7.6795 C   0  0  0  0  0  0  0  0  0  0  0  0
    3.4758   -6.5108   10.0984 C   0  0  0  0  0  0  0  0  0  0  0  0
    5.8229   -6.0128    9.3990 C   0  0  0  0  0  0  0  0  0  0  0  0
    4.5464    2.8792   13.3849 C   0  0  0  0  0  0  0  0  0  0  0  0
    4.8162    1.8039   14.4556 C   0  0  0  0  0  0  0  0  0  0  0  0
    5.8473    3.6790   13.1766 C   0  0  0  0  0  0  0  0  0  0  0  0
    3.4475    3.8309   13.8800 C   0  0  0  0  0  0  0  0  0  0  0  0
    4.9984    2.2885    3.4285 C   0  0  0  0  0  0  0  0  0  0  0  0
    6.4959    2.4972    3.1618 C   0  0  0  0  0  0  0  0  0  0  0  0
    4.4118    1.3478    2.3569 C   0  0  0  0  0  0  0  0  0  0  0  0
    4.2627    3.6398    3.3255 C   0  0  0  0  0  0  0  0  0  0  0  0
    4.4548    1.8098    1.3715 H   0  0  0  0  0  0  0  0  0  0  0  0
    3.3696    1.1203    2.5768 H   0  0  0  0  0  0  0  0  0  0  0  0
    4.9562    0.4073    2.2955 H   0  0  0  0  0  0  0  0  0  0  0  0
    6.6586    2.9304    2.1755 H   0  0  0  0  0  0  0  0  0  0  0  0
    7.0325    1.5503    3.2091 H   0  0  0  0  0  0  0  0  0  0  0  0
    6.9308    3.1662    3.9035 H   0  0  0  0  0  0  0  0  0  0  0  0
    4.2531    4.0066    2.2990 H   0  0  0  0  0  0  0  0  0  0  0  0
    4.7343    4.4025    3.9428 H   0  0  0  0  0  0  0  0  0  0  0  0
    3.2282    3.5330    3.6474 H   0  0  0  0  0  0  0  0  0  0  0  0
    6.2196    4.0669   14.1246 H   0  0  0  0  0  0  0  0  0  0  0  0
    5.6892    4.5314   12.5176 H   0  0  0  0  0  0  0  0  0  0  0  0
    6.6239    3.0496   12.7432 H   0  0  0  0  0  0  0  0  0  0  0  0
    3.7310    4.2983   14.8226 H   0  0  0  0  0  0  0  0  0  0  0  0
    2.5109    3.2971   14.0372 H   0  0  0  0  0  0  0  0  0  0  0  0
    3.2703    4.6224   13.1531 H   0  0  0  0  0  0  0  0  0  0  0  0
    5.2054    2.2536   15.3688 H   0  0  0  0  0  0  0  0  0  0  0  0
    5.5480    1.0802   14.0982 H   0  0  0  0  0  0  0  0  0  0  0  0
    3.9079    1.2644   14.7188 H   0  0  0  0  0  0  0  0  0  0  0  0
    1.1626    5.1227   12.2332 H   0  0  0  0  0  0  0  0  0  0  0  0
    1.4420    3.4543   11.7309 H   0  0  0  0  0  0  0  0  0  0  0  0
   -0.1950    4.0116   12.0551 H   0  0  0  0  0  0  0  0  0  0  0  0
    0.1472    6.7878   10.6770 H   0  0  0  0  0  0  0  0  0  0  0  0
   -1.2739    5.7628   10.5178 H   0  0  0  0  0  0  0  0  0  0  0  0
   -0.4106    6.3170    9.0778 H   0  0  0  0  0  0  0  0  0  0  0  0
    2.4410    5.9083   10.1252 H   0  0  0  0  0  0  0  0  0  0  0  0
    1.9025    5.3808    8.5333 H   0  0  0  0  0  0  0  0  0  0  0  0
    2.6716    4.2413    9.6203 H   0  0  0  0  0  0  0  0  0  0  0  0
   -7.3335    2.7128    2.8463 H   0  0  0  0  0  0  0  0  0  0  0  0
   -6.2671    3.3998    4.0594 H   0  0  0  0  0  0  0  0  0  0  0  0
   -7.2434    1.9842    4.4496 H   0  0  0  0  0  0  0  0  0  0  0  0
   -5.2458    2.5700    1.2773 H   0  0  0  0  0  0  0  0  0  0  0  0
   -3.8519    1.6289    1.8152 H   0  0  0  0  0  0  0  0  0  0  0  0
   -4.2123    3.1668    2.5801 H   0  0  0  0  0  0  0  0  0  0  0  0
   -6.8629    0.6306    1.7072 H   0  0  0  0  0  0  0  0  0  0  0  0
   -6.7551   -0.2751    3.2168 H   0  0  0  0  0  0  0  0  0  0  0  0
   -5.4380   -0.3278    2.0415 H   0  0  0  0  0  0  0  0  0  0  0  0
    4.2783   -7.6942    7.8007 H   0  0  0  0  0  0  0  0  0  0  0  0
    4.7492   -6.2670    6.8881 H   0  0  0  0  0  0  0  0  0  0  0  0
    3.0657   -6.4986    7.3473 H   0  0  0  0  0  0  0  0  0  0  0  0
    3.7401   -7.5584   10.2404 H   0  0  0  0  0  0  0  0  0  0  0  0
    2.4194   -6.4720    9.8367 H   0  0  0  0  0  0  0  0  0  0  0  0
    3.6152   -6.0021   11.0517 H   0  0  0  0  0  0  0  0  0  0  0  0
    6.0898   -7.0585    9.5495 H   0  0  0  0  0  0  0  0  0  0  0  0
    6.0227   -5.4755   10.3256 H   0  0  0  0  0  0  0  0  0  0  0  0
    6.4789   -5.6075    8.6298 H   0  0  0  0  0  0  0  0  0  0  0  0
   -0.6607   -6.9003   10.2107 H   0  0  0  0  0  0  0  0  0  0  0  0
   -1.5520   -5.4608   10.6980 H   0  0  0  0  0  0  0  0  0  0  0  0
    0.1768   -5.3639   10.3466 H   0  0  0  0  0  0  0  0  0  0  0  0
   -2.2285   -7.3799    8.4144 H   0  0  0  0  0  0  0  0  0  0  0  0
   -2.5666   -6.2407    7.1225 H   0  0  0  0  0  0  0  0  0  0  0  0
   -3.2147   -5.9541    8.7371 H   0  0  0  0  0  0  0  0  0  0  0  0
    0.2939   -7.0534    7.8371 H   0  0  0  0  0  0  0  0  0  0  0  0
    0.9934   -5.4374    7.9543 H   0  0  0  0  0  0  0  0  0  0  0  0
   -0.1191   -5.8224    6.6438 H   0  0  0  0  0  0  0  0  0  0  0  0
   -2.2626   -4.2819    6.4443 H   0  0  0  0  0  0  0  0  0  0  0  0
   -0.4214   -3.3646   10.1566 H   0  0  0  0  0  0  0  0  0  0  0  0
   -4.4359   -0.9510    3.8453 H   0  0  0  0  0  0  0  0  0  0  0  0
   -4.5126    3.1022    5.1564 H   0  0  0  0  0  0  0  0  0  0  0  0
   -1.7145    4.5877    8.6433 H   0  0  0  0  0  0  0  0  0  0  0  0
    1.6188    2.2487    9.7996 H   0  0  0  0  0  0  0  0  0  0  0  0
    2.7063    0.8917   13.0065 H   0  0  0  0  0  0  0  0  0  0  0  0
    4.9931    3.6458   10.7582 H   0  0  0  0  0  0  0  0  0  0  0  0
    2.4016   -4.2874   10.1970 H   0  0  0  0  0  0  0  0  0  0  0  0
    5.3672   -4.1324    7.1748 H   0  0  0  0  0  0  0  0  0  0  0  0
    4.6503    3.5395    5.8789 H   0  0  0  0  0  0  0  0  0  0  0  0
    5.2541   -0.3306    4.2186 H   0  0  0  0  0  0  0  0  0  0  0  0
  1  2  2  0  0  0  0
  1  6  1  0  0  0  0
  1131  1  0  0  0  0
  2  3  1  0  0  0  0
  2 22  1  0  0  0  0
  3  4  2  0  0  0  0
  3  7  1  0  0  0  0
  4  5  1  0  0  0  0
  4 10  1  0  0  0  0
  5  6  2  0  0  0  0
  5130  1  0  0  0  0
  6 52  1  0  0  0  0
  7  8  2  0  0  0  0
  7 11  1  0  0  0  0
  8 14  1  0  0  0  0
  9  8  1  0  0  0  0
  9 10  1  0  0  0  0
  9 17  1  0  0  0  0
 10 50  2  0  0  0  0
 11 12  2  0  0  0  0
 11 18  1  0  0  0  0
 12 13  1  0  0  0  0
 12 21  1  0  0  0  0
 13 14  1  0  0  0  0
 13 51  2  0  0  0  0
 14 15  2  0  0  0  0
 15 16  1  0  0  0  0
 15133  1  0  0  0  0
 16 17  2  0  0  0  0
 16 60  1  0  0  0  0
 17132  1  0  0  0  0
 18 19  2  0  0  0  0
 18 23  1  0  0  0  0
 19 20  1  0  0  0  0
 19135  1  0  0  0  0
 20 21  2  0  0  0  0
 20 56  1  0  0  0  0
 21134  1  0  0  0  0
 23 24  1  0  0  0  0
 24 22  1  0  0  0  0
 24 45  1  0  0  0  0
 24 46  1  0  0  0  0
 25 26  2  0  0  0  0
 25 30  1  0  0  0  0
 25138  1  0  0  0  0
 26 27  1  0  0  0  0
 26 46  1  0  0  0  0
 27 28  2  0  0  0  0
 27 31  1  0  0  0  0
 28 29  1  0  0  0  0
 28 47  1  0  0  0  0
 29 30  2  0  0  0  0
 29139  1  0  0  0  0
 30 64  1  0  0  0  0
 31 32  2  0  0  0  0
 31 34  1  0  0  0  0
 32 37  1  0  0  0  0
 33 32  1  0  0  0  0
 33 40  1  0  0  0  0
 33 47  1  0  0  0  0
 34 35  2  0  0  0  0
 34 41  1  0  0  0  0
 35 36  1  0  0  0  0
 35 44  1  0  0  0  0
 36 37  1  0  0  0  0
 36 48  2  0  0  0  0
 37 38  2  0  0  0  0
 38 39  1  0  0  0  0
 38140  1  0  0  0  0
 39 40  2  0  0  0  0
 39 72  1  0  0  0  0
 40141  1  0  0  0  0
 41 42  2  0  0  0  0
 41 45  1  0  0  0  0
 42 43  1  0  0  0  0
 42136  1  0  0  0  0
 43 44  2  0  0  0  0
 43 68  1  0  0  0  0
 44137  1  0  0  0  0
 47 49  2  0  0  0  0
 52 53  1  0  0  0  0
 52 54  1  0  0  0  0
 52 55  1  0  0  0  0
 53121  1  0  0  0  0
 53122  1  0  0  0  0
 53123  1  0  0  0  0
 54127  1  0  0  0  0
 54128  1  0  0  0  0
 54129  1  0  0  0  0
 55124  1  0  0  0  0
 55125  1  0  0  0  0
 55126  1  0  0  0  0
 56 57  1  0  0  0  0
 56 58  1  0  0  0  0
 56 59  1  0  0  0  0
 57 97  1  0  0  0  0
 57 98  1  0  0  0  0
 57 99  1  0  0  0  0
 58 94  1  0  0  0  0
 58 95  1  0  0  0  0
 58 96  1  0  0  0  0
 59100  1  0  0  0  0
 59101  1  0  0  0  0
 59102  1  0  0  0  0
 60 61  1  0  0  0  0
 60 62  1  0  0  0  0
 60 63  1  0  0  0  0
 61109  1  0  0  0  0
 61110  1  0  0  0  0
 61111  1  0  0  0  0
 62106  1  0  0  0  0
 62107  1  0  0  0  0
 62108  1  0  0  0  0
 63103  1  0  0  0  0
 63104  1  0  0  0  0
 63105  1  0  0  0  0
 64 65  1  0  0  0  0
 64 66  1  0  0  0  0
 64 67  1  0  0  0  0
 65112  1  0  0  0  0
 65113  1  0  0  0  0
 65114  1  0  0  0  0
 66115  1  0  0  0  0
 66116  1  0  0  0  0
 66117  1  0  0  0  0
 67118  1  0  0  0  0
 67119  1  0  0  0  0
 67120  1  0  0  0  0
 68 69  1  0  0  0  0
 68 70  1  0  0  0  0
 68 71  1  0  0  0  0
 69 91  1  0  0  0  0
 69 92  1  0  0  0  0
 69 93  1  0  0  0  0
 70 85  1  0  0  0  0
 70 86  1  0  0  0  0
 70 87  1  0  0  0  0
 71 88  1  0  0  0  0
 71 89  1  0  0  0  0
 71 90  1  0  0  0  0
 72 73  1  0  0  0  0
 72 74  1  0  0  0  0
 72 75  1  0  0  0  0
 73 79  1  0  0  0  0
 73 80  1  0  0  0  0
 73 81  1  0  0  0  0
 74 76  1  0  0  0  0
 74 77  1  0  0  0  0
 74 78  1  0  0  0  0
 75 82  1  0  0  0  0
 75 83  1  0  0  0  0
 75 84  1  0  0  0  0
142143  2  0  0  0  0
142147  1  0  0  0  0
142272  1  0  0  0  0
143144  1  0  0  0  0
143163  1  0  0  0  0
144145  2  0  0  0  0
144148  1  0  0  0  0
145146  1  0  0  0  0
145151  1  0  0  0  0
146147  2  0  0  0  0
146271  1  0  0  0  0
147193  1  0  0  0  0
148149  2  0  0  0  0
148152  1  0  0  0  0
149155  1  0  0  0  0
150149  1  0  0  0  0
150151  1  0  0  0  0
150158  1  0  0  0  0
151191  2  0  0  0  0
152153  2  0  0  0  0
152159  1  0  0  0  0
153154  1  0  0  0  0
153162  1  0  0  0  0
154155  1  0  0  0  0
154192  2  0  0  0  0
155156  2  0  0  0  0
156157  1  0  0  0  0
156274  1  0  0  0  0
157158  2  0  0  0  0
157201  1  0  0  0  0
158273  1  0  0  0  0
159160  2  0  0  0  0
159164  1  0  0  0  0
160161  1  0  0  0  0
160276  1  0  0  0  0
161162  2  0  0  0  0
161197  1  0  0  0  0
162275  1  0  0  0  0
164165  1  0  0  0  0
165163  1  0  0  0  0
165186  1  0  0  0  0
165187  1  0  0  0  0
166167  2  0  0  0  0
166171  1  0  0  0  0
166279  1  0  0  0  0
167168  1  0  0  0  0
167187  1  0  0  0  0
168169  2  0  0  0  0
168172  1  0  0  0  0
169170  1  0  0  0  0
169188  1  0  0  0  0
170171  2  0  0  0  0
170280  1  0  0  0  0
171205  1  0  0  0  0
172173  2  0  0  0  0
172175  1  0  0  0  0
173178  1  0  0  0  0
174173  1  0  0  0  0
174181  1  0  0  0  0
174188  1  0  0  0  0
175176  2  0  0  0  0
175182  1  0  0  0  0
176177  1  0  0  0  0
176185  1  0  0  0  0
177178  1  0  0  0  0
177189  2  0  0  0  0
178179  2  0  0  0  0
179180  1  0  0  0  0
179281  1  0  0  0  0
180181  2  0  0  0  0
180213  1  0  0  0  0
181282  1  0  0  0  0
182183  2  0  0  0  0
182186  1  0  0  0  0
183184  1  0  0  0  0
183277  1  0  0  0  0
184185  2  0  0  0  0
184209  1  0  0  0  0
185278  1  0  0  0  0
188190  2  0  0  0  0
193194  1  0  0  0  0
193195  1  0  0  0  0
193196  1  0  0  0  0
194262  1  0  0  0  0
194263  1  0  0  0  0
194264  1  0  0  0  0
195268  1  0  0  0  0
195269  1  0  0  0  0
195270  1  0  0  0  0
196265  1  0  0  0  0
196266  1  0  0  0  0
196267  1  0  0  0  0
197198  1  0  0  0  0
197199  1  0  0  0  0
197200  1  0  0  0  0
198238  1  0  0  0  0
198239  1  0  0  0  0
198240  1  0  0  0  0
199235  1  0  0  0  0
199236  1  0  0  0  0
199237  1  0  0  0  0
200241  1  0  0  0  0
200242  1  0  0  0  0
200243  1  0  0  0  0
201202  1  0  0  0  0
201203  1  0  0  0  0
201204  1  0  0  0  0
202250  1  0  0  0  0
202251  1  0  0  0  0
202252  1  0  0  0  0
203247  1  0  0  0  0
203248  1  0  0  0  0
203249  1  0  0  0  0
204244  1  0  0  0  0
204245  1  0  0  0  0
204246  1  0  0  0  0
205206  1  0  0  0  0
205207  1  0  0  0  0
205208  1  0  0  0  0
206253  1  0  0  0  0
206254  1  0  0  0  0
206255  1  0  0  0  0
207256  1  0  0  0  0
207257  1  0  0  0  0
207258  1  0  0  0  0
208259  1  0  0  0  0
208260  1  0  0  0  0
208261  1  0  0  0  0
209210  1  0  0  0  0
209211  1  0  0  0  0
209212  1  0  0  0  0
210232  1  0  0  0  0
210233  1  0  0  0  0
210234  1  0  0  0  0
211226  1  0  0  0  0
211227  1  0  0  0  0
211228  1  0  0  0  0
212229  1  0  0  0  0
212230  1  0  0  0  0
212231  1  0  0  0  0
213214  1  0  0  0  0
213215  1  0  0  0  0
213216  1  0  0  0  0
214220  1  0  0  0  0
214221  1  0  0  0  0
214222  1  0  0  0  0
215217  1  0  0  0  0
215218  1  0  0  0  0
215219  1  0  0  0  0
216223  1  0  0  0  0
216224  1  0  0  0  0
216225  1  0  0  0  0
M  CHG  1  24  -1
M  CHG  1 165  -1
M  END
