 energy: -418.571835863987 gnorm: 0.000578755731 xtb: 6.6.1 (8d0f1dd)
          11122409423D

282304  0     0  0            999 V2000
   -3.0212   -3.1830    1.8217 C   0  0  0  0  0  0  0  0  0  0  0  0
   -2.6498   -1.9435    1.2910 C   0  0  0  0  0  0  0  0  0  0  0  0
   -3.2389   -1.4761    0.0704 C   0  0  0  0  0  0  0  0  0  0  0  0
   -3.7510   -2.5360   -0.7368 C   0  0  0  0  0  0  0  0  0  0  0  0
   -4.0118   -3.7994   -0.2257 C   0  0  0  0  0  0  0  0  0  0  0  0
   -3.7567   -4.1140    1.1060 C   0  0  0  0  0  0  0  0  0  0  0  0
   -3.4880   -0.1195   -0.3026 C   0  0  0  0  0  0  0  0  0  0  0  0
   -4.2215    0.0589   -1.5240 C   0  0  0  0  0  0  0  0  0  0  0  0
   -4.2948   -0.9492   -2.5127 C   0  0  0  0  0  0  0  0  0  0  0  0
   -3.9939   -2.3312   -2.1614 C   0  0  0  0  0  0  0  0  0  0  0  0
   -3.3217    1.0754    0.5116 C   0  0  0  0  0  0  0  0  0  0  0  0
   -4.3154    2.0934    0.3968 C   0  0  0  0  0  0  0  0  0  0  0  0
   -5.2300    2.1713   -0.7414 C   0  0  0  0  0  0  0  0  0  0  0  0
   -4.9381    1.2346   -1.8214 C   0  0  0  0  0  0  0  0  0  0  0  0
   -5.4913    1.4626   -3.0755 C   0  0  0  0  0  0  0  0  0  0  0  0
   -5.3773    0.5410   -4.1055 C   0  0  0  0  0  0  0  0  0  0  0  0
   -4.8150   -0.6855   -3.7718 C   0  0  0  0  0  0  0  0  0  0  0  0
   -2.2613    1.4201    1.3986 C   0  0  0  0  0  0  0  0  0  0  0  0
   -2.3842    2.5156    2.2704 C   0  0  0  0  0  0  0  0  0  0  0  0
   -3.4540    3.3874    2.2655 C   0  0  0  0  0  0  0  0  0  0  0  0
   -4.3924    3.1730    1.2663 C   0  0  0  0  0  0  0  0  0  0  0  0
   -1.7295   -1.2789    1.9558 O   0  0  0  0  0  0  0  0  0  0  0  0
   -1.0377    0.9063    1.4039 O   0  0  0  0  0  0  0  0  0  0  0  0
   -0.6945   -0.4895    1.2621 B   0  0  0  0  0  0  0  0  0  0  0  0
   -0.1703   -3.0034   -0.8750 C   0  0  0  0  0  0  0  0  0  0  0  0
    0.3918   -1.7794   -0.4975 C   0  0  0  0  0  0  0  0  0  0  0  0
    1.7962   -1.5610   -0.6036 C   0  0  0  0  0  0  0  0  0  0  0  0
    2.5195   -2.6242   -1.2113 C   0  0  0  0  0  0  0  0  0  0  0  0
    1.9279   -3.8364   -1.5345 C   0  0  0  0  0  0  0  0  0  0  0  0
    0.5706   -4.0621   -1.3705 C   0  0  0  0  0  0  0  0  0  0  0  0
    2.5114   -0.3535   -0.2573 C   0  0  0  0  0  0  0  0  0  0  0  0
    3.7113   -0.0996   -1.0033 C   0  0  0  0  0  0  0  0  0  0  0  0
    4.3844   -1.1099   -1.7188 C   0  0  0  0  0  0  0  0  0  0  0  0
    2.2332    0.5715    0.8024 C   0  0  0  0  0  0  0  0  0  0  0  0
    2.9240    1.8145    0.8671 C   0  0  0  0  0  0  0  0  0  0  0  0
    3.8034    2.2634   -0.2107 C   0  0  0  0  0  0  0  0  0  0  0  0
    4.3056    1.1801   -1.0540 C   0  0  0  0  0  0  0  0  0  0  0  0
    5.4157    1.4295   -1.8471 C   0  0  0  0  0  0  0  0  0  0  0  0
    6.0487    0.4341   -2.5822 C   0  0  0  0  0  0  0  0  0  0  0  0
    5.5246   -0.8439   -2.4688 C   0  0  0  0  0  0  0  0  0  0  0  0
    1.3966    0.2989    1.9215 C   0  0  0  0  0  0  0  0  0  0  0  0
    1.3842    1.1382    3.0368 C   0  0  0  0  0  0  0  0  0  0  0  0
    2.0916    2.3248    3.0943 C   0  0  0  0  0  0  0  0  0  0  0  0
    2.8285    2.6579    1.9626 C   0  0  0  0  0  0  0  0  0  0  0  0
    0.5755   -0.7559    1.9620 O   0  0  0  0  0  0  0  0  0  0  0  0
   -0.4804   -0.8200   -0.1530 O   0  0  0  0  0  0  0  0  0  0  0  0
    3.9118   -2.4892   -1.6392 C   0  0  0  0  0  0  0  0  0  0  0  0
    4.1712    3.4293   -0.3434 O   0  0  0  0  0  0  0  0  0  0  0  0
    4.6062   -3.4429   -1.9892 O   0  0  0  0  0  0  0  0  0  0  0  0
   -4.0218   -3.2567   -2.9731 O   0  0  0  0  0  0  0  0  0  0  0  0
   -6.1425    2.9926   -0.8211 O   0  0  0  0  0  0  0  0  0  0  0  0
   -4.1767   -5.4208    1.7550 C   0  0  0  0  0  0  0  0  0  0  0  0
   -2.9429   -6.1623    2.2864 C   0  0  0  0  0  0  0  0  0  0  0  0
   -4.9175   -6.3378    0.7773 C   0  0  0  0  0  0  0  0  0  0  0  0
   -5.1059   -5.0980    2.9338 C   0  0  0  0  0  0  0  0  0  0  0  0
   -3.5497    4.6108    3.1586 C   0  0  0  0  0  0  0  0  0  0  0  0
   -4.9420    4.7192    3.7922 C   0  0  0  0  0  0  0  0  0  0  0  0
   -2.5155    4.5919    4.2847 C   0  0  0  0  0  0  0  0  0  0  0  0
   -3.2948    5.8424    2.2735 C   0  0  0  0  0  0  0  0  0  0  0  0
   -5.9000    0.7830   -5.5111 C   0  0  0  0  0  0  0  0  0  0  0  0
   -4.7629    0.5412   -6.5132 C   0  0  0  0  0  0  0  0  0  0  0  0
   -6.4132    2.2129   -5.7015 C   0  0  0  0  0  0  0  0  0  0  0  0
   -7.0527   -0.1915   -5.7905 C   0  0  0  0  0  0  0  0  0  0  0  0
   -0.0185   -5.4062   -1.7593 C   0  0  0  0  0  0  0  0  0  0  0  0
   -1.5303   -5.4700   -1.5501 C   0  0  0  0  0  0  0  0  0  0  0  0
    0.6405   -6.4900   -0.8933 C   0  0  0  0  0  0  0  0  0  0  0  0
    0.2742   -5.6748   -3.2422 C   0  0  0  0  0  0  0  0  0  0  0  0
    2.0822    3.2504    4.2961 C   0  0  0  0  0  0  0  0  0  0  0  0
    3.5122    3.3616    4.8410 C   0  0  0  0  0  0  0  0  0  0  0  0
    1.5995    4.6390    3.8537 C   0  0  0  0  0  0  0  0  0  0  0  0
    1.1767    2.7501    5.4233 C   0  0  0  0  0  0  0  0  0  0  0  0
    7.2666    0.7727   -3.4253 C   0  0  0  0  0  0  0  0  0  0  0  0
    8.3739    1.3100   -2.5080 C   0  0  0  0  0  0  0  0  0  0  0  0
    7.8098   -0.4436   -4.1799 C   0  0  0  0  0  0  0  0  0  0  0  0
    6.8787    1.8458   -4.4521 C   0  0  0  0  0  0  0  0  0  0  0  0
    8.6674   -0.1477   -4.7830 H   0  0  0  0  0  0  0  0  0  0  0  0
    7.0541   -0.8573   -4.8434 H   0  0  0  0  0  0  0  0  0  0  0  0
    8.1330   -1.2178   -3.4884 H   0  0  0  0  0  0  0  0  0  0  0  0
    9.2608    1.5580   -3.0897 H   0  0  0  0  0  0  0  0  0  0  0  0
    8.6430    0.5595   -1.7676 H   0  0  0  0  0  0  0  0  0  0  0  0
    8.0465    2.2027   -1.9825 H   0  0  0  0  0  0  0  0  0  0  0  0
    7.7359    2.1038   -5.0727 H   0  0  0  0  0  0  0  0  0  0  0  0
    6.5266    2.7483   -3.9607 H   0  0  0  0  0  0  0  0  0  0  0  0
    6.0829    1.4771   -5.0961 H   0  0  0  0  0  0  0  0  0  0  0  0
    1.5268    5.2987    4.7160 H   0  0  0  0  0  0  0  0  0  0  0  0
    0.6218    4.5643    3.3827 H   0  0  0  0  0  0  0  0  0  0  0  0
    2.2844    5.0858    3.1379 H   0  0  0  0  0  0  0  0  0  0  0  0
    1.2287    3.4394    6.2625 H   0  0  0  0  0  0  0  0  0  0  0  0
    1.4911    1.7727    5.7804 H   0  0  0  0  0  0  0  0  0  0  0  0
    0.1389    2.6884    5.1032 H   0  0  0  0  0  0  0  0  0  0  0  0
    3.5279    4.0307    5.6985 H   0  0  0  0  0  0  0  0  0  0  0  0
    4.1899    3.7459    4.0824 H   0  0  0  0  0  0  0  0  0  0  0  0
    3.8695    2.3840    5.1582 H   0  0  0  0  0  0  0  0  0  0  0  0
   -2.6905    5.4341    4.9515 H   0  0  0  0  0  0  0  0  0  0  0  0
   -1.5050    4.6780    3.8948 H   0  0  0  0  0  0  0  0  0  0  0  0
   -2.5930    3.6780    4.8679 H   0  0  0  0  0  0  0  0  0  0  0  0
   -5.0502    5.6868    4.2802 H   0  0  0  0  0  0  0  0  0  0  0  0
   -5.0763    3.9503    4.5474 H   0  0  0  0  0  0  0  0  0  0  0  0
   -5.7303    4.6227    3.0512 H   0  0  0  0  0  0  0  0  0  0  0  0
   -3.3029    6.7486    2.8772 H   0  0  0  0  0  0  0  0  0  0  0  0
   -4.0586    5.9308    1.5051 H   0  0  0  0  0  0  0  0  0  0  0  0
   -2.3263    5.7599    1.7842 H   0  0  0  0  0  0  0  0  0  0  0  0
   -7.4473   -0.0343   -6.7936 H   0  0  0  0  0  0  0  0  0  0  0  0
   -7.8560   -0.0360   -5.0731 H   0  0  0  0  0  0  0  0  0  0  0  0
   -6.7193   -1.2223   -5.7090 H   0  0  0  0  0  0  0  0  0  0  0  0
   -6.7257    2.3560   -6.7352 H   0  0  0  0  0  0  0  0  0  0  0  0
   -5.6322    2.9358   -5.4779 H   0  0  0  0  0  0  0  0  0  0  0  0
   -7.2687    2.4097   -5.0600 H   0  0  0  0  0  0  0  0  0  0  0  0
   -5.1119    0.7124   -7.5308 H   0  0  0  0  0  0  0  0  0  0  0  0
   -4.3901   -0.4767   -6.4453 H   0  0  0  0  0  0  0  0  0  0  0  0
   -3.9363    1.2193   -6.3116 H   0  0  0  0  0  0  0  0  0  0  0  0
   -1.8928   -6.4650   -1.8074 H   0  0  0  0  0  0  0  0  0  0  0  0
   -2.0480   -4.7508   -2.1796 H   0  0  0  0  0  0  0  0  0  0  0  0
   -1.7823   -5.2709   -0.5124 H   0  0  0  0  0  0  0  0  0  0  0  0
    0.2375   -7.4707   -1.1430 H   0  0  0  0  0  0  0  0  0  0  0  0
    0.4476   -6.2923    0.1589 H   0  0  0  0  0  0  0  0  0  0  0  0
    1.7167   -6.5115   -1.0429 H   0  0  0  0  0  0  0  0  0  0  0  0
   -0.1416   -6.6371   -3.5371 H   0  0  0  0  0  0  0  0  0  0  0  0
    1.3423   -5.6862   -3.4415 H   0  0  0  0  0  0  0  0  0  0  0  0
   -0.1819   -4.9000   -3.8543 H   0  0  0  0  0  0  0  0  0  0  0  0
   -3.2406   -7.1154    2.7215 H   0  0  0  0  0  0  0  0  0  0  0  0
   -2.4457   -5.5772    3.0536 H   0  0  0  0  0  0  0  0  0  0  0  0
   -2.2357   -6.3566    1.4828 H   0  0  0  0  0  0  0  0  0  0  0  0
   -5.4801   -6.0182    3.3806 H   0  0  0  0  0  0  0  0  0  0  0  0
   -5.9581   -4.5089    2.5972 H   0  0  0  0  0  0  0  0  0  0  0  0
   -4.5668   -4.5441    3.6971 H   0  0  0  0  0  0  0  0  0  0  0  0
   -5.2200   -7.2504    1.2895 H   0  0  0  0  0  0  0  0  0  0  0  0
   -4.2778   -6.6140   -0.0575 H   0  0  0  0  0  0  0  0  0  0  0  0
   -5.8117   -5.8532    0.3913 H   0  0  0  0  0  0  0  0  0  0  0  0
   -4.4313   -4.5150   -0.9140 H   0  0  0  0  0  0  0  0  0  0  0  0
   -2.6513   -3.3958    2.8124 H   0  0  0  0  0  0  0  0  0  0  0  0
   -4.7975   -1.5068   -4.4741 H   0  0  0  0  0  0  0  0  0  0  0  0
   -6.0262    2.3919   -3.1956 H   0  0  0  0  0  0  0  0  0  0  0  0
   -5.2000    3.8677    1.0872 H   0  0  0  0  0  0  0  0  0  0  0  0
   -1.5398    2.6582    2.9247 H   0  0  0  0  0  0  0  0  0  0  0  0
    0.7455    0.8177    3.8436 H   0  0  0  0  0  0  0  0  0  0  0  0
    3.3802    3.5845    1.9020 H   0  0  0  0  0  0  0  0  0  0  0  0
   -1.2398   -3.0769   -0.7723 H   0  0  0  0  0  0  0  0  0  0  0  0
    2.5811   -4.5857   -1.9572 H   0  0  0  0  0  0  0  0  0  0  0  0
    5.7806    2.4468   -1.8448 H   0  0  0  0  0  0  0  0  0  0  0  0
    5.9755   -1.6936   -2.9575 H   0  0  0  0  0  0  0  0  0  0  0  0
   -1.5546   -2.7572    9.7387 C   0  0  0  0  0  0  0  0  0  0  0  0
   -1.6472   -1.4864    9.1703 C   0  0  0  0  0  0  0  0  0  0  0  0
   -2.1489   -1.3076    7.8534 C   0  0  0  0  0  0  0  0  0  0  0  0
   -2.4384   -2.5100    7.1542 C   0  0  0  0  0  0  0  0  0  0  0  0
   -2.2546   -3.7595    7.7252 C   0  0  0  0  0  0  0  0  0  0  0  0
   -1.8476   -3.9170    9.0429 C   0  0  0  0  0  0  0  0  0  0  0  0
   -2.5142   -0.0415    7.2842 C   0  0  0  0  0  0  0  0  0  0  0  0
   -3.4928   -0.1024    6.2331 C   0  0  0  0  0  0  0  0  0  0  0  0
   -3.7175   -1.2704    5.4719 C   0  0  0  0  0  0  0  0  0  0  0  0
   -3.0248   -2.5094    5.8120 C   0  0  0  0  0  0  0  0  0  0  0  0
   -2.0967    1.2783    7.6980 C   0  0  0  0  0  0  0  0  0  0  0  0
   -2.9663    2.3694    7.4322 C   0  0  0  0  0  0  0  0  0  0  0  0
   -4.2410    2.2042    6.7309 C   0  0  0  0  0  0  0  0  0  0  0  0
   -4.3353    0.9860    5.9351 C   0  0  0  0  0  0  0  0  0  0  0  0
   -5.3175    0.9100    4.9546 C   0  0  0  0  0  0  0  0  0  0  0  0
   -5.5031   -0.2261    4.1829 C   0  0  0  0  0  0  0  0  0  0  0  0
   -4.6707   -1.3038    4.4620 C   0  0  0  0  0  0  0  0  0  0  0  0
   -0.8388    1.6457    8.2643 C   0  0  0  0  0  0  0  0  0  0  0  0
   -0.5440    2.9865    8.5180 C   0  0  0  0  0  0  0  0  0  0  0  0
   -1.4231    4.0323    8.2759 C   0  0  0  0  0  0  0  0  0  0  0  0
   -2.6516    3.6850    7.7455 C   0  0  0  0  0  0  0  0  0  0  0  0
   -1.2561   -0.4599    9.9396 O   0  0  0  0  0  0  0  0  0  0  0  0
    0.1632    0.7813    8.4978 O   0  0  0  0  0  0  0  0  0  0  0  0
    0.1449   -0.0715    9.6778 B   0  0  0  0  0  0  0  0  0  0  0  0
    2.2608   -2.7867   10.5145 C   0  0  0  0  0  0  0  0  0  0  0  0
    2.1425   -1.5094    9.9539 C   0  0  0  0  0  0  0  0  0  0  0  0
    3.2921   -0.6770    9.8352 C   0  0  0  0  0  0  0  0  0  0  0  0
    4.5243   -1.3604   10.0263 C   0  0  0  0  0  0  0  0  0  0  0  0
    4.5992   -2.6288   10.5916 C   0  0  0  0  0  0  0  0  0  0  0  0
    3.4620   -3.3491   10.9130 C   0  0  0  0  0  0  0  0  0  0  0  0
    3.3475    0.7333    9.5066 C   0  0  0  0  0  0  0  0  0  0  0  0
    4.5297    1.1710    8.8193 C   0  0  0  0  0  0  0  0  0  0  0  0
    5.6744    0.3610    8.6915 C   0  0  0  0  0  0  0  0  0  0  0  0
    2.5111    1.7666   10.0190 C   0  0  0  0  0  0  0  0  0  0  0  0
    2.8783    3.1287    9.8155 C   0  0  0  0  0  0  0  0  0  0  0  0
    3.7073    3.5090    8.6703 C   0  0  0  0  0  0  0  0  0  0  0  0
    4.6337    2.4620    8.2549 C   0  0  0  0  0  0  0  0  0  0  0  0
    5.7059    2.8053    7.4428 C   0  0  0  0  0  0  0  0  0  0  0  0
    6.7659    1.9383    7.2019 C   0  0  0  0  0  0  0  0  0  0  0  0
    6.7527    0.7396    7.9000 C   0  0  0  0  0  0  0  0  0  0  0  0
    1.4136    1.6099   10.9279 C   0  0  0  0  0  0  0  0  0  0  0  0
    1.1759    2.5998   11.8863 C   0  0  0  0  0  0  0  0  0  0  0  0
    1.7760    3.8499   11.8466 C   0  0  0  0  0  0  0  0  0  0  0  0
    2.5200    4.1320   10.7030 C   0  0  0  0  0  0  0  0  0  0  0  0
    0.6037    0.5713   10.9426 O   0  0  0  0  0  0  0  0  0  0  0  0
    0.9426   -1.2533    9.4470 O   0  0  0  0  0  0  0  0  0  0  0  0
    5.7945   -0.8288    9.5310 C   0  0  0  0  0  0  0  0  0  0  0  0
    3.6906    4.6384    8.1868 O   0  0  0  0  0  0  0  0  0  0  0  0
    6.8799   -1.3584    9.7628 O   0  0  0  0  0  0  0  0  0  0  0  0
   -3.0520   -3.5118    5.1017 O   0  0  0  0  0  0  0  0  0  0  0  0
   -5.1310    3.0525    6.7505 O   0  0  0  0  0  0  0  0  0  0  0  0
   -1.7349   -5.3120    9.6332 C   0  0  0  0  0  0  0  0  0  0  0  0
   -1.2958   -5.2966   11.0991 C   0  0  0  0  0  0  0  0  0  0  0  0
   -0.7063   -6.1058    8.8156 C   0  0  0  0  0  0  0  0  0  0  0  0
   -3.1045   -6.0018    9.5522 C   0  0  0  0  0  0  0  0  0  0  0  0
   -1.0366    5.4663    8.5899 C   0  0  0  0  0  0  0  0  0  0  0  0
   -2.1101    6.4679    8.1520 C   0  0  0  0  0  0  0  0  0  0  0  0
   -0.8506    5.5901   10.1061 C   0  0  0  0  0  0  0  0  0  0  0  0
    0.2690    5.8235    7.8696 C   0  0  0  0  0  0  0  0  0  0  0  0
   -6.6287   -0.3544    3.1715 C   0  0  0  0  0  0  0  0  0  0  0  0
   -6.1159   -0.9710    1.8671 C   0  0  0  0  0  0  0  0  0  0  0  0
   -7.2577    1.0004    2.8342 C   0  0  0  0  0  0  0  0  0  0  0  0
   -7.6996   -1.2683    3.7883 C   0  0  0  0  0  0  0  0  0  0  0  0
    3.4941   -4.6997   11.6076 C   0  0  0  0  0  0  0  0  0  0  0  0
    2.9366   -5.7708   10.6618 C   0  0  0  0  0  0  0  0  0  0  0  0
    2.6321   -4.6248   12.8755 C   0  0  0  0  0  0  0  0  0  0  0  0
    4.9128   -5.1057   12.0168 C   0  0  0  0  0  0  0  0  0  0  0  0
    1.6605    4.8161   13.0132 C   0  0  0  0  0  0  0  0  0  0  0  0
    2.6304    4.3085   14.0934 C   0  0  0  0  0  0  0  0  0  0  0  0
    2.0600    6.2432   12.6261 C   0  0  0  0  0  0  0  0  0  0  0  0
    0.2417    4.8515   13.5941 C   0  0  0  0  0  0  0  0  0  0  0  0
    7.8946    2.3564    6.2763 C   0  0  0  0  0  0  0  0  0  0  0  0
    8.5969    3.5865    6.8691 C   0  0  0  0  0  0  0  0  0  0  0  0
    8.9321    1.2465    6.0887 C   0  0  0  0  0  0  0  0  0  0  0  0
    7.3070    2.7077    4.9031 C   0  0  0  0  0  0  0  0  0  0  0  0
    9.6918    1.5730    5.3802 H   0  0  0  0  0  0  0  0  0  0  0  0
    8.4662    0.3464    5.6952 H   0  0  0  0  0  0  0  0  0  0  0  0
    9.4268    1.0079    7.0275 H   0  0  0  0  0  0  0  0  0  0  0  0
    9.4143    3.9003    6.2221 H   0  0  0  0  0  0  0  0  0  0  0  0
    9.0026    3.3516    7.8516 H   0  0  0  0  0  0  0  0  0  0  0  0
    7.9052    4.4176    6.9753 H   0  0  0  0  0  0  0  0  0  0  0  0
    8.1011    2.9893    4.2138 H   0  0  0  0  0  0  0  0  0  0  0  0
    6.6072    3.5345    4.9754 H   0  0  0  0  0  0  0  0  0  0  0  0
    6.7783    1.8526    4.4883 H   0  0  0  0  0  0  0  0  0  0  0  0
    1.9186    6.9080   13.4771 H   0  0  0  0  0  0  0  0  0  0  0  0
    1.4480    6.6036   11.8040 H   0  0  0  0  0  0  0  0  0  0  0  0
    3.1058    6.2917   12.3341 H   0  0  0  0  0  0  0  0  0  0  0  0
    0.1867    5.5960   14.3872 H   0  0  0  0  0  0  0  0  0  0  0  0
   -0.0365    3.8914   14.0187 H   0  0  0  0  0  0  0  0  0  0  0  0
   -0.4796    5.1118   12.8249 H   0  0  0  0  0  0  0  0  0  0  0  0
    2.6012    4.9586   14.9667 H   0  0  0  0  0  0  0  0  0  0  0  0
    3.6480    4.2884   13.7082 H   0  0  0  0  0  0  0  0  0  0  0  0
    2.3634    3.2997   14.3993 H   0  0  0  0  0  0  0  0  0  0  0  0
   -0.5782    6.6114   10.3705 H   0  0  0  0  0  0  0  0  0  0  0  0
   -0.0702    4.9169   10.4473 H   0  0  0  0  0  0  0  0  0  0  0  0
   -1.7777    5.3343   10.6170 H   0  0  0  0  0  0  0  0  0  0  0  0
   -1.7811    7.4793    8.3871 H   0  0  0  0  0  0  0  0  0  0  0  0
   -3.0498    6.2897    8.6695 H   0  0  0  0  0  0  0  0  0  0  0  0
   -2.2800    6.4078    7.0801 H   0  0  0  0  0  0  0  0  0  0  0  0
    0.5299    6.8635    8.0602 H   0  0  0  0  0  0  0  0  0  0  0  0
    0.1464    5.6910    6.7969 H   0  0  0  0  0  0  0  0  0  0  0  0
    1.0982    5.2061    8.2010 H   0  0  0  0  0  0  0  0  0  0  0  0
   -8.5344   -1.3877    3.0998 H   0  0  0  0  0  0  0  0  0  0  0  0
   -8.0732   -0.8407    4.7172 H   0  0  0  0  0  0  0  0  0  0  0  0
   -7.2862   -2.2502    4.0065 H   0  0  0  0  0  0  0  0  0  0  0  0
   -7.9980    0.8734    2.0463 H   0  0  0  0  0  0  0  0  0  0  0  0
   -6.4999    1.6921    2.4744 H   0  0  0  0  0  0  0  0  0  0  0  0
   -7.7576    1.4342    3.6973 H   0  0  0  0  0  0  0  0  0  0  0  0
   -6.9246   -1.0419    1.1413 H   0  0  0  0  0  0  0  0  0  0  0  0
   -5.7069   -1.9658    2.0153 H   0  0  0  0  0  0  0  0  0  0  0  0
   -5.3371   -0.3423    1.4481 H   0  0  0  0  0  0  0  0  0  0  0  0
    2.9801   -6.7517   11.1329 H   0  0  0  0  0  0  0  0  0  0  0  0
    3.5189   -5.7999    9.7436 H   0  0  0  0  0  0  0  0  0  0  0  0
    1.9040   -5.5616   10.4020 H   0  0  0  0  0  0  0  0  0  0  0  0
    2.6190   -5.5891   13.3817 H   0  0  0  0  0  0  0  0  0  0  0  0
    1.6091   -4.3475   12.6398 H   0  0  0  0  0  0  0  0  0  0  0  0
    3.0353   -3.8796   13.5583 H   0  0  0  0  0  0  0  0  0  0  0  0
    4.8811   -6.0507   12.5578 H   0  0  0  0  0  0  0  0  0  0  0  0
    5.3589   -4.3556   12.6656 H   0  0  0  0  0  0  0  0  0  0  0  0
    5.5470   -5.2374   11.1439 H   0  0  0  0  0  0  0  0  0  0  0  0
   -1.2368   -6.3167   11.4772 H   0  0  0  0  0  0  0  0  0  0  0  0
   -2.0065   -4.7462   11.7115 H   0  0  0  0  0  0  0  0  0  0  0  0
   -0.3154   -4.8412   11.2064 H   0  0  0  0  0  0  0  0  0  0  0  0
   -3.0442   -7.0091    9.9622 H   0  0  0  0  0  0  0  0  0  0  0  0
   -3.4483   -6.0694    8.5243 H   0  0  0  0  0  0  0  0  0  0  0  0
   -3.8420   -5.4390   10.1212 H   0  0  0  0  0  0  0  0  0  0  0  0
   -0.5403   -7.0866    9.2595 H   0  0  0  0  0  0  0  0  0  0  0  0
    0.2400   -5.5707    8.7831 H   0  0  0  0  0  0  0  0  0  0  0  0
   -1.0457   -6.2439    7.7933 H   0  0  0  0  0  0  0  0  0  0  0  0
   -2.4784   -4.6094    7.0976 H   0  0  0  0  0  0  0  0  0  0  0  0
   -1.2075   -2.7742   10.7592 H   0  0  0  0  0  0  0  0  0  0  0  0
   -4.7666   -2.2320    3.9207 H   0  0  0  0  0  0  0  0  0  0  0  0
   -5.9408    1.7817    4.8358 H   0  0  0  0  0  0  0  0  0  0  0  0
   -3.4092    4.4170    7.5168 H   0  0  0  0  0  0  0  0  0  0  0  0
    0.4384    3.1816    8.9185 H   0  0  0  0  0  0  0  0  0  0  0  0
    0.4461    2.3475   12.6386 H   0  0  0  0  0  0  0  0  0  0  0  0
    2.8803    5.1239   10.4824 H   0  0  0  0  0  0  0  0  0  0  0  0
    1.3329   -3.3305   10.5965 H   0  0  0  0  0  0  0  0  0  0  0  0
    5.5926   -3.0230   10.7339 H   0  0  0  0  0  0  0  0  0  0  0  0
    5.6964    3.8040    7.0323 H   0  0  0  0  0  0  0  0  0  0  0  0
    7.5854    0.0544    7.8736 H   0  0  0  0  0  0  0  0  0  0  0  0
  1  2  2  0  0  0  0
  1131  1  0  0  0  0
  2  3  1  0  0  0  0
  2 22  1  0  0  0  0
  3  4  2  0  0  0  0
  4  5  1  0  0  0  0
  5  6  2  0  0  0  0
  5130  1  0  0  0  0
  6 52  1  0  0  0  0
  6  1  1  0  0  0  0
  7  3  1  0  0  0  0
  7  8  1  0  0  0  0
  7 11  1  0  0  0  0
  8  9  2  0  0  0  0
  9 10  1  0  0  0  0
 10  4  1  0  0  0  0
 10 50  2  0  0  0  0
 11 12  2  0  0  0  0
 11 18  1  0  0  0  0
 13 14  1  0  0  0  0
 13 12  1  0  0  0  0
 13 51  2  0  0  0  0
 14  8  1  0  0  0  0
 14 15  2  0  0  0  0
 15 16  1  0  0  0  0
 15133  1  0  0  0  0
 16 60  1  0  0  0  0
 16 17  2  0  0  0  0
 17  9  1  0  0  0  0
 17132  1  0  0  0  0
 18 19  2  0  0  0  0
 18 23  1  0  0  0  0
 19 20  1  0  0  0  0
 19135  1  0  0  0  0
 20 56  1  0  0  0  0
 20 21  2  0  0  0  0
 21 12  1  0  0  0  0
 21134  1  0  0  0  0
 24 23  1  0  0  0  0
 24 22  1  0  0  0  0
 25 26  2  0  0  0  0
 25138  1  0  0  0  0
 26 27  1  0  0  0  0
 26 46  1  0  0  0  0
 27 28  2  0  0  0  0
 28 29  1  0  0  0  0
 28 47  1  0  0  0  0
 29 30  2  0  0  0  0
 29139  1  0  0  0  0
 30 64  1  0  0  0  0
 30 25  1  0  0  0  0
 31 27  1  0  0  0  0
 31 32  1  0  0  0  0
 32 33  2  0  0  0  0
 34 35  2  0  0  0  0
 34 41  1  0  0  0  0
 34 31  1  0  0  0  0
 36 37  1  0  0  0  0
 36 35  1  0  0  0  0
 36 48  2  0  0  0  0
 37 32  1  0  0  0  0
 37 38  2  0  0  0  0
 38 39  1  0  0  0  0
 38140  1  0  0  0  0
 39 72  1  0  0  0  0
 39 40  2  0  0  0  0
 40 33  1  0  0  0  0
 40141  1  0  0  0  0
 41 42  2  0  0  0  0
 41 45  1  0  0  0  0
 42 43  1  0  0  0  0
 42136  1  0  0  0  0
 43 68  1  0  0  0  0
 43 44  2  0  0  0  0
 44 35  1  0  0  0  0
 44137  1  0  0  0  0
 45 24  1  0  0  0  0
 46 24  1  0  0  0  0
 47 33  1  0  0  0  0
 47 49  2  0  0  0  0
 52 53  1  0  0  0  0
 52 54  1  0  0  0  0
 52 55  1  0  0  0  0
 53121  1  0  0  0  0
 53122  1  0  0  0  0
 53123  1  0  0  0  0
 54127  1  0  0  0  0
 54128  1  0  0  0  0
 54129  1  0  0  0  0
 55124  1  0  0  0  0
 55125  1  0  0  0  0
 55126  1  0  0  0  0
 56 57  1  0  0  0  0
 56 58  1  0  0  0  0
 56 59  1  0  0  0  0
 57 97  1  0  0  0  0
 57 98  1  0  0  0  0
 57 99  1  0  0  0  0
 58 94  1  0  0  0  0
 58 95  1  0  0  0  0
 58 96  1  0  0  0  0
 59100  1  0  0  0  0
 59101  1  0  0  0  0
 59102  1  0  0  0  0
 60 61  1  0  0  0  0
 60 62  1  0  0  0  0
 60 63  1  0  0  0  0
 61109  1  0  0  0  0
 61110  1  0  0  0  0
 61111  1  0  0  0  0
 62106  1  0  0  0  0
 62107  1  0  0  0  0
 62108  1  0  0  0  0
 63103  1  0  0  0  0
 63104  1  0  0  0  0
 63105  1  0  0  0  0
 64 65  1  0  0  0  0
 64 66  1  0  0  0  0
 64 67  1  0  0  0  0
 65112  1  0  0  0  0
 65113  1  0  0  0  0
 65114  1  0  0  0  0
 66115  1  0  0  0  0
 66116  1  0  0  0  0
 66117  1  0  0  0  0
 67118  1  0  0  0  0
 67119  1  0  0  0  0
 67120  1  0  0  0  0
 68 69  1  0  0  0  0
 68 70  1  0  0  0  0
 68 71  1  0  0  0  0
 69 91  1  0  0  0  0
 69 92  1  0  0  0  0
 69 93  1  0  0  0  0
 70 85  1  0  0  0  0
 70 86  1  0  0  0  0
 70 87  1  0  0  0  0
 71 88  1  0  0  0  0
 71 89  1  0  0  0  0
 71 90  1  0  0  0  0
 72 73  1  0  0  0  0
 72 74  1  0  0  0  0
 72 75  1  0  0  0  0
 73 79  1  0  0  0  0
 73 80  1  0  0  0  0
 73 81  1  0  0  0  0
 74 76  1  0  0  0  0
 74 77  1  0  0  0  0
 74 78  1  0  0  0  0
 75 82  1  0  0  0  0
 75 83  1  0  0  0  0
 75 84  1  0  0  0  0
142143  2  0  0  0  0
142272  1  0  0  0  0
143144  1  0  0  0  0
143163  1  0  0  0  0
144145  2  0  0  0  0
145146  1  0  0  0  0
146147  2  0  0  0  0
146271  1  0  0  0  0
147193  1  0  0  0  0
147142  1  0  0  0  0
148144  1  0  0  0  0
148149  1  0  0  0  0
148152  1  0  0  0  0
149150  2  0  0  0  0
150151  1  0  0  0  0
151145  1  0  0  0  0
151191  2  0  0  0  0
152153  2  0  0  0  0
152159  1  0  0  0  0
154155  1  0  0  0  0
154153  1  0  0  0  0
154192  2  0  0  0  0
155149  1  0  0  0  0
155156  2  0  0  0  0
156157  1  0  0  0  0
156274  1  0  0  0  0
157201  1  0  0  0  0
157158  2  0  0  0  0
158150  1  0  0  0  0
158273  1  0  0  0  0
159160  2  0  0  0  0
159164  1  0  0  0  0
160161  1  0  0  0  0
160276  1  0  0  0  0
161197  1  0  0  0  0
161162  2  0  0  0  0
162153  1  0  0  0  0
162275  1  0  0  0  0
165164  1  0  0  0  0
165163  1  0  0  0  0
166167  2  0  0  0  0
166279  1  0  0  0  0
167168  1  0  0  0  0
167187  1  0  0  0  0
168169  2  0  0  0  0
169170  1  0  0  0  0
169188  1  0  0  0  0
170171  2  0  0  0  0
170280  1  0  0  0  0
171205  1  0  0  0  0
171166  1  0  0  0  0
172168  1  0  0  0  0
172173  1  0  0  0  0
173174  2  0  0  0  0
175176  2  0  0  0  0
175182  1  0  0  0  0
175172  1  0  0  0  0
177178  1  0  0  0  0
177176  1  0  0  0  0
177189  2  0  0  0  0
178173  1  0  0  0  0
178179  2  0  0  0  0
179180  1  0  0  0  0
179281  1  0  0  0  0
180213  1  0  0  0  0
180181  2  0  0  0  0
181174  1  0  0  0  0
181282  1  0  0  0  0
182183  2  0  0  0  0
182186  1  0  0  0  0
183184  1  0  0  0  0
183277  1  0  0  0  0
184209  1  0  0  0  0
184185  2  0  0  0  0
185176  1  0  0  0  0
185278  1  0  0  0  0
186165  1  0  0  0  0
187165  1  0  0  0  0
188174  1  0  0  0  0
188190  2  0  0  0  0
193194  1  0  0  0  0
193195  1  0  0  0  0
193196  1  0  0  0  0
194262  1  0  0  0  0
194263  1  0  0  0  0
194264  1  0  0  0  0
195268  1  0  0  0  0
195269  1  0  0  0  0
195270  1  0  0  0  0
196265  1  0  0  0  0
196266  1  0  0  0  0
196267  1  0  0  0  0
197198  1  0  0  0  0
197199  1  0  0  0  0
197200  1  0  0  0  0
198238  1  0  0  0  0
198239  1  0  0  0  0
198240  1  0  0  0  0
199235  1  0  0  0  0
199236  1  0  0  0  0
199237  1  0  0  0  0
200241  1  0  0  0  0
200242  1  0  0  0  0
200243  1  0  0  0  0
201202  1  0  0  0  0
201203  1  0  0  0  0
201204  1  0  0  0  0
202250  1  0  0  0  0
202251  1  0  0  0  0
202252  1  0  0  0  0
203247  1  0  0  0  0
203248  1  0  0  0  0
203249  1  0  0  0  0
204244  1  0  0  0  0
204245  1  0  0  0  0
204246  1  0  0  0  0
205206  1  0  0  0  0
205207  1  0  0  0  0
205208  1  0  0  0  0
206253  1  0  0  0  0
206254  1  0  0  0  0
206255  1  0  0  0  0
207256  1  0  0  0  0
207257  1  0  0  0  0
207258  1  0  0  0  0
208259  1  0  0  0  0
208260  1  0  0  0  0
208261  1  0  0  0  0
209210  1  0  0  0  0
209211  1  0  0  0  0
209212  1  0  0  0  0
210232  1  0  0  0  0
210233  1  0  0  0  0
210234  1  0  0  0  0
211226  1  0  0  0  0
211227  1  0  0  0  0
211228  1  0  0  0  0
212229  1  0  0  0  0
212230  1  0  0  0  0
212231  1  0  0  0  0
213214  1  0  0  0  0
213215  1  0  0  0  0
213216  1  0  0  0  0
214220  1  0  0  0  0
214221  1  0  0  0  0
214222  1  0  0  0  0
215217  1  0  0  0  0
215218  1  0  0  0  0
215219  1  0  0  0  0
216223  1  0  0  0  0
216224  1  0  0  0  0
216225  1  0  0  0  0
M  CHG  1  24  -1
M  CHG  1 165  -1
M  END
