 energy: -209.495368139955 gnorm: 0.000291417311 xtb: 6.6.1 (8d0f1dd)
          11122409323D

141152  0     0  0            999 V2000
   -2.0892   -2.8375    1.7489 C   0  0  0  0  0  0  0  0  0  0  0  0
   -1.9850   -1.5857    1.1379 C   0  0  0  0  0  0  0  0  0  0  0  0
   -2.7711   -1.3049   -0.0285 C   0  0  0  0  0  0  0  0  0  0  0  0
   -3.2459   -2.4698   -0.6944 C   0  0  0  0  0  0  0  0  0  0  0  0
   -3.2353   -3.7270   -0.0987 C   0  0  0  0  0  0  0  0  0  0  0  0
   -2.7742   -3.9128    1.1920 C   0  0  0  0  0  0  0  0  0  0  0  0
   -3.2892   -0.0283   -0.4302 C   0  0  0  0  0  0  0  0  0  0  0  0
   -4.3204   -0.0315   -1.4090 C   0  0  0  0  0  0  0  0  0  0  0  0
   -4.5157   -1.1229   -2.2903 C   0  0  0  0  0  0  0  0  0  0  0  0
   -3.8866   -2.4032   -2.0047 C   0  0  0  0  0  0  0  0  0  0  0  0
   -3.0490    1.2449    0.2069 C   0  0  0  0  0  0  0  0  0  0  0  0
   -4.1034    2.1885    0.2883 C   0  0  0  0  0  0  0  0  0  0  0  0
   -5.2928    2.0863   -0.5457 C   0  0  0  0  0  0  0  0  0  0  0  0
   -5.2293    1.0435   -1.5626 C   0  0  0  0  0  0  0  0  0  0  0  0
   -6.1349    1.0828   -2.6156 C   0  0  0  0  0  0  0  0  0  0  0  0
   -6.2030    0.0788   -3.5702 C   0  0  0  0  0  0  0  0  0  0  0  0
   -5.4005   -1.0351   -3.3551 C   0  0  0  0  0  0  0  0  0  0  0  0
   -1.8008    1.6962    0.7124 C   0  0  0  0  0  0  0  0  0  0  0  0
   -1.7384    2.8353    1.5051 C   0  0  0  0  0  0  0  0  0  0  0  0
   -2.8481    3.6370    1.7682 C   0  0  0  0  0  0  0  0  0  0  0  0
   -4.0068    3.3275    1.0905 C   0  0  0  0  0  0  0  0  0  0  0  0
   -1.1784   -0.7217    1.7608 O   0  0  0  0  0  0  0  0  0  0  0  0
   -0.6433    1.1359    0.3377 O   0  0  0  0  0  0  0  0  0  0  0  0
   -0.1014   -0.0192    1.0138 B   0  0  0  0  0  0  0  0  0  0  0  0
    1.3595   -2.9350    0.6891 C   0  0  0  0  0  0  0  0  0  0  0  0
    1.5995   -1.6080    0.3555 C   0  0  0  0  0  0  0  0  0  0  0  0
    2.9310   -1.1238    0.2552 C   0  0  0  0  0  0  0  0  0  0  0  0
    3.9325   -2.1260    0.2159 C   0  0  0  0  0  0  0  0  0  0  0  0
    3.6558   -3.4533    0.5485 C   0  0  0  0  0  0  0  0  0  0  0  0
    2.3785   -3.8716    0.8511 C   0  0  0  0  0  0  0  0  0  0  0  0
    3.3097    0.2622    0.1162 C   0  0  0  0  0  0  0  0  0  0  0  0
    4.5210    0.4925   -0.5938 C   0  0  0  0  0  0  0  0  0  0  0  0
    5.4449   -0.5415   -0.8812 C   0  0  0  0  0  0  0  0  0  0  0  0
    2.7176    1.3940    0.7740 C   0  0  0  0  0  0  0  0  0  0  0  0
    3.2790    2.6820    0.5487 C   0  0  0  0  0  0  0  0  0  0  0  0
    4.1793    2.9534   -0.5682 C   0  0  0  0  0  0  0  0  0  0  0  0
    4.8910    1.7805   -1.0515 C   0  0  0  0  0  0  0  0  0  0  0  0
    5.9973    1.9650   -1.8675 C   0  0  0  0  0  0  0  0  0  0  0  0
    6.8472    0.9245   -2.2216 C   0  0  0  0  0  0  0  0  0  0  0  0
    6.5674   -0.3159   -1.6687 C   0  0  0  0  0  0  0  0  0  0  0  0
    1.7392    1.3602    1.8212 C   0  0  0  0  0  0  0  0  0  0  0  0
    1.6664    2.4149    2.7340 C   0  0  0  0  0  0  0  0  0  0  0  0
    2.3799    3.6004    2.6020 C   0  0  0  0  0  0  0  0  0  0  0  0
    3.0984    3.7430    1.4298 C   0  0  0  0  0  0  0  0  0  0  0  0
    0.8953    0.3502    2.0611 O   0  0  0  0  0  0  0  0  0  0  0  0
    0.5472   -0.8477    0.0198 O   0  0  0  0  0  0  0  0  0  0  0  0
    5.2777   -1.8545   -0.2706 C   0  0  0  0  0  0  0  0  0  0  0  0
    4.4132    4.0950   -0.9822 O   0  0  0  0  0  0  0  0  0  0  0  0
    6.1945   -2.6860   -0.2327 O   0  0  0  0  0  0  0  0  0  0  0  0
   -3.9972   -3.3842   -2.7493 O   0  0  0  0  0  0  0  0  0  0  0  0
   -6.2579    2.8561   -0.4495 O   0  0  0  0  0  0  0  0  0  0  0  0
   -3.1090   -5.1879    1.9525 C   0  0  0  0  0  0  0  0  0  0  0  0
   -2.3007   -5.3400    3.2427 C   0  0  0  0  0  0  0  0  0  0  0  0
   -2.8818   -6.4382    1.0935 C   0  0  0  0  0  0  0  0  0  0  0  0
   -4.6001   -5.0998    2.3188 C   0  0  0  0  0  0  0  0  0  0  0  0
   -2.7342    4.7962    2.7445 C   0  0  0  0  0  0  0  0  0  0  0  0
   -4.0239    5.6167    2.8405 C   0  0  0  0  0  0  0  0  0  0  0  0
   -2.4302    4.2109    4.1307 C   0  0  0  0  0  0  0  0  0  0  0  0
   -1.6024    5.7328    2.3066 C   0  0  0  0  0  0  0  0  0  0  0  0
   -7.1251    0.1268   -4.7788 C   0  0  0  0  0  0  0  0  0  0  0  0
   -6.2742    0.0096   -6.0512 C   0  0  0  0  0  0  0  0  0  0  0  0
   -7.9244    1.4306   -4.8529 C   0  0  0  0  0  0  0  0  0  0  0  0
   -8.1157   -1.0439   -4.7113 C   0  0  0  0  0  0  0  0  0  0  0  0
    2.0554   -5.2725    1.3424 C   0  0  0  0  0  0  0  0  0  0  0  0
    0.9462   -5.8898    0.4834 C   0  0  0  0  0  0  0  0  0  0  0  0
    1.5867   -5.1486    2.7987 C   0  0  0  0  0  0  0  0  0  0  0  0
    3.2678   -6.2077    1.2996 C   0  0  0  0  0  0  0  0  0  0  0  0
    2.4680    4.6666    3.6843 C   0  0  0  0  0  0  0  0  0  0  0  0
    3.8776    4.5725    4.2911 C   0  0  0  0  0  0  0  0  0  0  0  0
    2.2694    6.0705    3.0978 C   0  0  0  0  0  0  0  0  0  0  0  0
    1.4444    4.4628    4.8029 C   0  0  0  0  0  0  0  0  0  0  0  0
    8.0390    1.1939   -3.1274 C   0  0  0  0  0  0  0  0  0  0  0  0
    8.9740    2.1997   -2.4409 C   0  0  0  0  0  0  0  0  0  0  0  0
    8.8376   -0.0755   -3.4358 C   0  0  0  0  0  0  0  0  0  0  0  0
    7.5363    1.7804   -4.4539 C   0  0  0  0  0  0  0  0  0  0  0  0
    9.6608    0.1613   -4.1104 H   0  0  0  0  0  0  0  0  0  0  0  0
    8.2069   -0.8207   -3.9147 H   0  0  0  0  0  0  0  0  0  0  0  0
    9.2552   -0.5023   -2.5271 H   0  0  0  0  0  0  0  0  0  0  0  0
    9.8380    2.4112   -3.0711 H   0  0  0  0  0  0  0  0  0  0  0  0
    9.3254    1.7953   -1.4935 H   0  0  0  0  0  0  0  0  0  0  0  0
    8.4571    3.1337   -2.2393 H   0  0  0  0  0  0  0  0  0  0  0  0
    8.3726    1.9882   -5.1218 H   0  0  0  0  0  0  0  0  0  0  0  0
    6.9900    2.7045   -4.2881 H   0  0  0  0  0  0  0  0  0  0  0  0
    6.8677    1.0752   -4.9434 H   0  0  0  0  0  0  0  0  0  0  0  0
    2.2757    6.8145    3.8948 H   0  0  0  0  0  0  0  0  0  0  0  0
    1.3202    6.1340    2.5733 H   0  0  0  0  0  0  0  0  0  0  0  0
    3.0610    6.3195    2.3974 H   0  0  0  0  0  0  0  0  0  0  0  0
    1.5521    5.2487    5.5511 H   0  0  0  0  0  0  0  0  0  0  0  0
    1.5915    3.5053    5.2962 H   0  0  0  0  0  0  0  0  0  0  0  0
    0.4340    4.5048    4.4085 H   0  0  0  0  0  0  0  0  0  0  0  0
    4.0109    5.3209    5.0729 H   0  0  0  0  0  0  0  0  0  0  0  0
    4.6323    4.7296    3.5245 H   0  0  0  0  0  0  0  0  0  0  0  0
    4.0341    3.5858    4.7223 H   0  0  0  0  0  0  0  0  0  0  0  0
   -2.2391    5.0040    4.8542 H   0  0  0  0  0  0  0  0  0  0  0  0
   -1.5654    3.5556    4.0861 H   0  0  0  0  0  0  0  0  0  0  0  0
   -3.2763    3.6204    4.4773 H   0  0  0  0  0  0  0  0  0  0  0  0
   -3.8941    6.4211    3.5651 H   0  0  0  0  0  0  0  0  0  0  0  0
   -4.8557    4.9962    3.1648 H   0  0  0  0  0  0  0  0  0  0  0  0
   -4.2727    6.0598    1.8792 H   0  0  0  0  0  0  0  0  0  0  0  0
   -1.4786    6.5460    3.0224 H   0  0  0  0  0  0  0  0  0  0  0  0
   -1.8286    6.1592    1.3312 H   0  0  0  0  0  0  0  0  0  0  0  0
   -0.6646    5.1927    2.2263 H   0  0  0  0  0  0  0  0  0  0  0  0
   -8.7851   -1.0277   -5.5717 H   0  0  0  0  0  0  0  0  0  0  0  0
   -8.7133   -0.9753   -3.8042 H   0  0  0  0  0  0  0  0  0  0  0  0
   -7.5919   -1.9956   -4.7007 H   0  0  0  0  0  0  0  0  0  0  0  0
   -8.5455    1.4320   -5.7490 H   0  0  0  0  0  0  0  0  0  0  0  0
   -7.2589    2.2893   -4.8977 H   0  0  0  0  0  0  0  0  0  0  0  0
   -8.5751    1.5368   -3.9883 H   0  0  0  0  0  0  0  0  0  0  0  0
   -6.9062    0.0371   -6.9391 H   0  0  0  0  0  0  0  0  0  0  0  0
   -5.7112   -0.9193   -6.0568 H   0  0  0  0  0  0  0  0  0  0  0  0
   -5.5663    0.8344   -6.1030 H   0  0  0  0  0  0  0  0  0  0  0  0
    0.7051   -6.8924    0.8386 H   0  0  0  0  0  0  0  0  0  0  0  0
    1.2710   -5.9580   -0.5529 H   0  0  0  0  0  0  0  0  0  0  0  0
    0.0468   -5.2830    0.5140 H   0  0  0  0  0  0  0  0  0  0  0  0
    1.2561   -6.1135    3.1847 H   0  0  0  0  0  0  0  0  0  0  0  0
    0.7708   -4.4353    2.8704 H   0  0  0  0  0  0  0  0  0  0  0  0
    2.4021   -4.7858    3.4219 H   0  0  0  0  0  0  0  0  0  0  0  0
    2.9818   -7.1966    1.6589 H   0  0  0  0  0  0  0  0  0  0  0  0
    4.0700   -5.8355    1.9319 H   0  0  0  0  0  0  0  0  0  0  0  0
    3.6415   -6.3076    0.2832 H   0  0  0  0  0  0  0  0  0  0  0  0
   -2.5789   -6.2662    3.7466 H   0  0  0  0  0  0  0  0  0  0  0  0
   -2.4935   -4.5152    3.9238 H   0  0  0  0  0  0  0  0  0  0  0  0
   -1.2379   -5.3760    3.0243 H   0  0  0  0  0  0  0  0  0  0  0  0
   -4.9144   -5.9867    2.8699 H   0  0  0  0  0  0  0  0  0  0  0  0
   -5.2063   -5.0129    1.4204 H   0  0  0  0  0  0  0  0  0  0  0  0
   -4.7828   -4.2224    2.9358 H   0  0  0  0  0  0  0  0  0  0  0  0
   -3.0959   -7.3349    1.6757 H   0  0  0  0  0  0  0  0  0  0  0  0
   -1.8515   -6.4851    0.7530 H   0  0  0  0  0  0  0  0  0  0  0  0
   -3.5295   -6.4407    0.2219 H   0  0  0  0  0  0  0  0  0  0  0  0
   -3.6724   -4.5296   -0.6730 H   0  0  0  0  0  0  0  0  0  0  0  0
   -1.5746   -2.9248    2.6939 H   0  0  0  0  0  0  0  0  0  0  0  0
   -5.4557   -1.9024   -3.9987 H   0  0  0  0  0  0  0  0  0  0  0  0
   -6.7907    1.9400   -2.6407 H   0  0  0  0  0  0  0  0  0  0  0  0
   -4.8836    3.9552    1.1215 H   0  0  0  0  0  0  0  0  0  0  0  0
   -0.7603    3.0826    1.8891 H   0  0  0  0  0  0  0  0  0  0  0  0
    0.9909    2.2518    3.5603 H   0  0  0  0  0  0  0  0  0  0  0  0
    3.6073    4.6615    1.1784 H   0  0  0  0  0  0  0  0  0  0  0  0
    0.3214   -3.2099    0.7973 H   0  0  0  0  0  0  0  0  0  0  0  0
    4.4987   -4.1263    0.5297 H   0  0  0  0  0  0  0  0  0  0  0  0
    6.1824    2.9797   -2.1925 H   0  0  0  0  0  0  0  0  0  0  0  0
    7.2154   -1.1666   -1.8166 H   0  0  0  0  0  0  0  0  0  0  0  0
  1  2  2  0  0  0  0
  1131  1  0  0  0  0
  2  3  1  0  0  0  0
  2 22  1  0  0  0  0
  3  4  2  0  0  0  0
  4  5  1  0  0  0  0
  5  6  2  0  0  0  0
  5130  1  0  0  0  0
  6 52  1  0  0  0  0
  6  1  1  0  0  0  0
  7  3  1  0  0  0  0
  7  8  1  0  0  0  0
  7 11  1  0  0  0  0
  8  9  2  0  0  0  0
  9 10  1  0  0  0  0
 10  4  1  0  0  0  0
 10 50  2  0  0  0  0
 11 12  2  0  0  0  0
 11 18  1  0  0  0  0
 13 14  1  0  0  0  0
 13 12  1  0  0  0  0
 13 51  2  0  0  0  0
 14  8  1  0  0  0  0
 14 15  2  0  0  0  0
 15 16  1  0  0  0  0
 15133  1  0  0  0  0
 16 60  1  0  0  0  0
 16 17  2  0  0  0  0
 17  9  1  0  0  0  0
 17132  1  0  0  0  0
 18 19  2  0  0  0  0
 18 23  1  0  0  0  0
 19 20  1  0  0  0  0
 19135  1  0  0  0  0
 20 56  1  0  0  0  0
 20 21  2  0  0  0  0
 21 12  1  0  0  0  0
 21134  1  0  0  0  0
 24 23  1  0  0  0  0
 24 22  1  0  0  0  0
 25 26  2  0  0  0  0
 25138  1  0  0  0  0
 26 27  1  0  0  0  0
 26 46  1  0  0  0  0
 27 28  2  0  0  0  0
 28 29  1  0  0  0  0
 28 47  1  0  0  0  0
 29 30  2  0  0  0  0
 29139  1  0  0  0  0
 30 64  1  0  0  0  0
 30 25  1  0  0  0  0
 31 27  1  0  0  0  0
 31 32  1  0  0  0  0
 32 33  2  0  0  0  0
 34 35  2  0  0  0  0
 34 41  1  0  0  0  0
 34 31  1  0  0  0  0
 36 37  1  0  0  0  0
 36 35  1  0  0  0  0
 36 48  2  0  0  0  0
 37 32  1  0  0  0  0
 37 38  2  0  0  0  0
 38 39  1  0  0  0  0
 38140  1  0  0  0  0
 39 72  1  0  0  0  0
 39 40  2  0  0  0  0
 40 33  1  0  0  0  0
 40141  1  0  0  0  0
 41 42  2  0  0  0  0
 41 45  1  0  0  0  0
 42 43  1  0  0  0  0
 42136  1  0  0  0  0
 43 68  1  0  0  0  0
 43 44  2  0  0  0  0
 44 35  1  0  0  0  0
 44137  1  0  0  0  0
 45 24  1  0  0  0  0
 46 24  1  0  0  0  0
 47 33  1  0  0  0  0
 47 49  2  0  0  0  0
 52 53  1  0  0  0  0
 52 54  1  0  0  0  0
 52 55  1  0  0  0  0
 53121  1  0  0  0  0
 53122  1  0  0  0  0
 53123  1  0  0  0  0
 54127  1  0  0  0  0
 54128  1  0  0  0  0
 54129  1  0  0  0  0
 55124  1  0  0  0  0
 55125  1  0  0  0  0
 55126  1  0  0  0  0
 56 57  1  0  0  0  0
 56 58  1  0  0  0  0
 56 59  1  0  0  0  0
 57 97  1  0  0  0  0
 57 98  1  0  0  0  0
 57 99  1  0  0  0  0
 58 94  1  0  0  0  0
 58 95  1  0  0  0  0
 58 96  1  0  0  0  0
 59100  1  0  0  0  0
 59101  1  0  0  0  0
 59102  1  0  0  0  0
 60 61  1  0  0  0  0
 60 62  1  0  0  0  0
 60 63  1  0  0  0  0
 61109  1  0  0  0  0
 61110  1  0  0  0  0
 61111  1  0  0  0  0
 62106  1  0  0  0  0
 62107  1  0  0  0  0
 62108  1  0  0  0  0
 63103  1  0  0  0  0
 63104  1  0  0  0  0
 63105  1  0  0  0  0
 64 65  1  0  0  0  0
 64 66  1  0  0  0  0
 64 67  1  0  0  0  0
 65112  1  0  0  0  0
 65113  1  0  0  0  0
 65114  1  0  0  0  0
 66115  1  0  0  0  0
 66116  1  0  0  0  0
 66117  1  0  0  0  0
 67118  1  0  0  0  0
 67119  1  0  0  0  0
 67120  1  0  0  0  0
 68 69  1  0  0  0  0
 68 70  1  0  0  0  0
 68 71  1  0  0  0  0
 69 91  1  0  0  0  0
 69 92  1  0  0  0  0
 69 93  1  0  0  0  0
 70 85  1  0  0  0  0
 70 86  1  0  0  0  0
 70 87  1  0  0  0  0
 71 88  1  0  0  0  0
 71 89  1  0  0  0  0
 71 90  1  0  0  0  0
 72 73  1  0  0  0  0
 72 74  1  0  0  0  0
 72 75  1  0  0  0  0
 73 79  1  0  0  0  0
 73 80  1  0  0  0  0
 73 81  1  0  0  0  0
 74 76  1  0  0  0  0
 74 77  1  0  0  0  0
 74 78  1  0  0  0  0
 75 82  1  0  0  0  0
 75 83  1  0  0  0  0
 75 84  1  0  0  0  0
M  CHG  1   1  -2
M  END
