 energy: -208.993016372704 gnorm: 0.000328071802 xtb: 6.6.1 (8d0f1dd)
          11122409333D

141152  0     0  0            999 V2000
   -2.1652   -2.8255    1.7671 C   0  0  0  0  0  0  0  0  0  0  0  0
   -2.0216   -1.5578    1.1772 C   0  0  0  0  0  0  0  0  0  0  0  0
   -2.7336   -1.2680   -0.0353 C   0  0  0  0  0  0  0  0  0  0  0  0
   -3.1515   -2.4275   -0.7549 C   0  0  0  0  0  0  0  0  0  0  0  0
   -3.1564   -3.6846   -0.1959 C   0  0  0  0  0  0  0  0  0  0  0  0
   -2.7799   -3.8909    1.1382 C   0  0  0  0  0  0  0  0  0  0  0  0
   -3.2403    0.0010   -0.4293 C   0  0  0  0  0  0  0  0  0  0  0  0
   -4.2723   -0.0016   -1.4406 C   0  0  0  0  0  0  0  0  0  0  0  0
   -4.4039   -1.0603   -2.3581 C   0  0  0  0  0  0  0  0  0  0  0  0
   -3.6850   -2.3156   -2.1244 C   0  0  0  0  0  0  0  0  0  0  0  0
   -2.9954    1.2721    0.2019 C   0  0  0  0  0  0  0  0  0  0  0  0
   -4.0490    2.2196    0.2760 C   0  0  0  0  0  0  0  0  0  0  0  0
   -5.2760    2.0759   -0.5205 C   0  0  0  0  0  0  0  0  0  0  0  0
   -5.2059    1.0406   -1.5607 C   0  0  0  0  0  0  0  0  0  0  0  0
   -6.1391    1.0642   -2.5911 C   0  0  0  0  0  0  0  0  0  0  0  0
   -6.1794    0.0790   -3.5691 C   0  0  0  0  0  0  0  0  0  0  0  0
   -5.3042   -0.9921   -3.4112 C   0  0  0  0  0  0  0  0  0  0  0  0
   -1.7490    1.7158    0.7130 C   0  0  0  0  0  0  0  0  0  0  0  0
   -1.6714    2.8944    1.4566 C   0  0  0  0  0  0  0  0  0  0  0  0
   -2.7631    3.7167    1.6839 C   0  0  0  0  0  0  0  0  0  0  0  0
   -3.9408    3.3790    1.0257 C   0  0  0  0  0  0  0  0  0  0  0  0
   -1.2456   -0.7041    1.8192 O   0  0  0  0  0  0  0  0  0  0  0  0
   -0.5978    1.1164    0.3975 O   0  0  0  0  0  0  0  0  0  0  0  0
   -0.1218   -0.0459    1.0848 B   0  0  0  0  0  0  0  0  0  0  0  0
    1.3614   -3.0109    0.7803 C   0  0  0  0  0  0  0  0  0  0  0  0
    1.5693   -1.6669    0.4663 C   0  0  0  0  0  0  0  0  0  0  0  0
    2.8861   -1.1519    0.3574 C   0  0  0  0  0  0  0  0  0  0  0  0
    3.9164   -2.1271    0.3369 C   0  0  0  0  0  0  0  0  0  0  0  0
    3.6771   -3.4529    0.6563 C   0  0  0  0  0  0  0  0  0  0  0  0
    2.3969   -3.9175    0.9393 C   0  0  0  0  0  0  0  0  0  0  0  0
    3.2325    0.2366    0.1978 C   0  0  0  0  0  0  0  0  0  0  0  0
    4.4395    0.4917   -0.5543 C   0  0  0  0  0  0  0  0  0  0  0  0
    5.3938   -0.5087   -0.8006 C   0  0  0  0  0  0  0  0  0  0  0  0
    2.6383    1.3546    0.8463 C   0  0  0  0  0  0  0  0  0  0  0  0
    3.1595    2.6571    0.5840 C   0  0  0  0  0  0  0  0  0  0  0  0
    3.9541    2.9259   -0.6280 C   0  0  0  0  0  0  0  0  0  0  0  0
    4.7281    1.7655   -1.0771 C   0  0  0  0  0  0  0  0  0  0  0  0
    5.8140    1.9699   -1.9159 C   0  0  0  0  0  0  0  0  0  0  0  0
    6.7183    0.9552   -2.2172 C   0  0  0  0  0  0  0  0  0  0  0  0
    6.5068   -0.2701   -1.5987 C   0  0  0  0  0  0  0  0  0  0  0  0
    1.7059    1.3044    1.9364 C   0  0  0  0  0  0  0  0  0  0  0  0
    1.6909    2.3512    2.8743 C   0  0  0  0  0  0  0  0  0  0  0  0
    2.3775    3.5368    2.7009 C   0  0  0  0  0  0  0  0  0  0  0  0
    3.0180    3.7035    1.4660 C   0  0  0  0  0  0  0  0  0  0  0  0
    0.8562    0.3173    2.1571 O   0  0  0  0  0  0  0  0  0  0  0  0
    0.4956   -0.9379    0.1483 O   0  0  0  0  0  0  0  0  0  0  0  0
    5.2752   -1.8072   -0.1232 C   0  0  0  0  0  0  0  0  0  0  0  0
    4.0420    4.0333   -1.1291 O   0  0  0  0  0  0  0  0  0  0  0  0
    6.2165   -2.5759   -0.0122 O   0  0  0  0  0  0  0  0  0  0  0  0
   -3.6310   -3.2266   -2.9319 O   0  0  0  0  0  0  0  0  0  0  0  0
   -6.2530    2.7929   -0.3762 O   0  0  0  0  0  0  0  0  0  0  0  0
   -3.1135   -5.1964    1.8331 C   0  0  0  0  0  0  0  0  0  0  0  0
   -2.2778   -5.4251    3.0944 C   0  0  0  0  0  0  0  0  0  0  0  0
   -2.9340   -6.4009    0.8998 C   0  0  0  0  0  0  0  0  0  0  0  0
   -4.5957   -5.0907    2.2335 C   0  0  0  0  0  0  0  0  0  0  0  0
   -2.6459    4.9162    2.6037 C   0  0  0  0  0  0  0  0  0  0  0  0
   -3.9015    5.7913    2.5944 C   0  0  0  0  0  0  0  0  0  0  0  0
   -2.4320    4.3803    4.0272 C   0  0  0  0  0  0  0  0  0  0  0  0
   -1.4532    5.7824    2.1800 C   0  0  0  0  0  0  0  0  0  0  0  0
   -7.1505    0.0981   -4.7336 C   0  0  0  0  0  0  0  0  0  0  0  0
   -6.3540    0.0257   -6.0439 C   0  0  0  0  0  0  0  0  0  0  0  0
   -8.0092    1.3648   -4.7555 C   0  0  0  0  0  0  0  0  0  0  0  0
   -8.0789   -1.1198   -4.6213 C   0  0  0  0  0  0  0  0  0  0  0  0
    2.1197   -5.3337    1.4039 C   0  0  0  0  0  0  0  0  0  0  0  0
    0.9991   -5.9543    0.5607 C   0  0  0  0  0  0  0  0  0  0  0  0
    1.6892   -5.2488    2.8760 C   0  0  0  0  0  0  0  0  0  0  0  0
    3.3508   -6.2379    1.3036 C   0  0  0  0  0  0  0  0  0  0  0  0
    2.5137    4.5966    3.7764 C   0  0  0  0  0  0  0  0  0  0  0  0
    3.9155    4.4084    4.3820 C   0  0  0  0  0  0  0  0  0  0  0  0
    2.4075    6.0112    3.1909 C   0  0  0  0  0  0  0  0  0  0  0  0
    1.4735    4.4470    4.8884 C   0  0  0  0  0  0  0  0  0  0  0  0
    7.8927    1.2349   -3.1349 C   0  0  0  0  0  0  0  0  0  0  0  0
    8.7717    2.3182   -2.4933 C   0  0  0  0  0  0  0  0  0  0  0  0
    8.7509   -0.0088   -3.3781 C   0  0  0  0  0  0  0  0  0  0  0  0
    7.3593    1.7307   -4.4864 C   0  0  0  0  0  0  0  0  0  0  0  0
    9.5565    0.2363   -4.0669 H   0  0  0  0  0  0  0  0  0  0  0  0
    8.1620   -0.8094   -3.8193 H   0  0  0  0  0  0  0  0  0  0  0  0
    9.1982   -0.3643   -2.4530 H   0  0  0  0  0  0  0  0  0  0  0  0
    9.6296    2.5249   -3.1290 H   0  0  0  0  0  0  0  0  0  0  0  0
    9.1336    1.9839   -1.5232 H   0  0  0  0  0  0  0  0  0  0  0  0
    8.2201    3.2435   -2.3525 H   0  0  0  0  0  0  0  0  0  0  0  0
    8.1878    1.9303   -5.1621 H   0  0  0  0  0  0  0  0  0  0  0  0
    6.7830    2.6448   -4.3753 H   0  0  0  0  0  0  0  0  0  0  0  0
    6.7197    0.9758   -4.9388 H   0  0  0  0  0  0  0  0  0  0  0  0
    2.3715    6.7391    3.9983 H   0  0  0  0  0  0  0  0  0  0  0  0
    1.5064    6.1185    2.5931 H   0  0  0  0  0  0  0  0  0  0  0  0
    3.2642    6.2520    2.5686 H   0  0  0  0  0  0  0  0  0  0  0  0
    1.6109    5.2367    5.6238 H   0  0  0  0  0  0  0  0  0  0  0  0
    1.5769    3.4951    5.4024 H   0  0  0  0  0  0  0  0  0  0  0  0
    0.4670    4.5291    4.4885 H   0  0  0  0  0  0  0  0  0  0  0  0
    4.0889    5.1542    5.1545 H   0  0  0  0  0  0  0  0  0  0  0  0
    4.6829    4.5142    3.6188 H   0  0  0  0  0  0  0  0  0  0  0  0
    4.0087    3.4197    4.8261 H   0  0  0  0  0  0  0  0  0  0  0  0
   -2.2544    5.2020    4.7179 H   0  0  0  0  0  0  0  0  0  0  0  0
   -1.5857    3.6996    4.0626 H   0  0  0  0  0  0  0  0  0  0  0  0
   -3.3138    3.8358    4.3581 H   0  0  0  0  0  0  0  0  0  0  0  0
   -3.7576    6.6365    3.2643 H   0  0  0  0  0  0  0  0  0  0  0  0
   -4.7711    5.2366    2.9371 H   0  0  0  0  0  0  0  0  0  0  0  0
   -4.0981    6.1794    1.5980 H   0  0  0  0  0  0  0  0  0  0  0  0
   -1.3648    6.6434    2.8395 H   0  0  0  0  0  0  0  0  0  0  0  0
   -1.5917    6.1399    1.1620 H   0  0  0  0  0  0  0  0  0  0  0  0
   -0.5240    5.2223    2.2193 H   0  0  0  0  0  0  0  0  0  0  0  0
   -8.7955   -1.1170   -5.4393 H   0  0  0  0  0  0  0  0  0  0  0  0
   -8.6274   -1.0898   -3.6822 H   0  0  0  0  0  0  0  0  0  0  0  0
   -7.5192   -2.0500   -4.6612 H   0  0  0  0  0  0  0  0  0  0  0  0
   -8.6636    1.3435   -5.6243 H   0  0  0  0  0  0  0  0  0  0  0  0
   -7.3894    2.2558   -4.8222 H   0  0  0  0  0  0  0  0  0  0  0  0
   -8.6335    1.4313   -3.8678 H   0  0  0  0  0  0  0  0  0  0  0  0
   -7.0332    0.0441   -6.8932 H   0  0  0  0  0  0  0  0  0  0  0  0
   -5.7631   -0.8840   -6.1001 H   0  0  0  0  0  0  0  0  0  0  0  0
   -5.6805    0.8765   -6.1227 H   0  0  0  0  0  0  0  0  0  0  0  0
    0.8090   -6.9744    0.8883 H   0  0  0  0  0  0  0  0  0  0  0  0
    1.2867   -5.9765   -0.4881 H   0  0  0  0  0  0  0  0  0  0  0  0
    0.0768   -5.3883    0.6479 H   0  0  0  0  0  0  0  0  0  0  0  0
    1.3977   -6.2310    3.2423 H   0  0  0  0  0  0  0  0  0  0  0  0
    0.8540   -4.5635    2.9953 H   0  0  0  0  0  0  0  0  0  0  0  0
    2.5124   -4.8833    3.4861 H   0  0  0  0  0  0  0  0  0  0  0  0
    3.0881   -7.2432    1.6265 H   0  0  0  0  0  0  0  0  0  0  0  0
    4.1555   -5.8821    1.9415 H   0  0  0  0  0  0  0  0  0  0  0  0
    3.7087   -6.2941    0.2785 H   0  0  0  0  0  0  0  0  0  0  0  0
   -2.5478   -6.3793    3.5416 H   0  0  0  0  0  0  0  0  0  0  0  0
   -2.4574   -4.6511    3.8356 H   0  0  0  0  0  0  0  0  0  0  0  0
   -1.2188   -5.4509    2.8552 H   0  0  0  0  0  0  0  0  0  0  0  0
   -4.9124   -6.0065    2.7273 H   0  0  0  0  0  0  0  0  0  0  0  0
   -5.2209   -4.9344    1.3574 H   0  0  0  0  0  0  0  0  0  0  0  0
   -4.7476   -4.2571    2.9156 H   0  0  0  0  0  0  0  0  0  0  0  0
   -3.0501   -7.3220    1.4664 H   0  0  0  0  0  0  0  0  0  0  0  0
   -1.9459   -6.4001    0.4475 H   0  0  0  0  0  0  0  0  0  0  0  0
   -3.6768   -6.4070    0.1075 H   0  0  0  0  0  0  0  0  0  0  0  0
   -3.5105   -4.4949   -0.8126 H   0  0  0  0  0  0  0  0  0  0  0  0
   -1.7217   -2.9245    2.7453 H   0  0  0  0  0  0  0  0  0  0  0  0
   -5.3185   -1.8344   -4.0869 H   0  0  0  0  0  0  0  0  0  0  0  0
   -6.8338    1.8891   -2.5867 H   0  0  0  0  0  0  0  0  0  0  0  0
   -4.8122    4.0133    1.0537 H   0  0  0  0  0  0  0  0  0  0  0  0
   -0.6936    3.1356    1.8445 H   0  0  0  0  0  0  0  0  0  0  0  0
    1.0660    2.1792    3.7365 H   0  0  0  0  0  0  0  0  0  0  0  0
    3.4642    4.6445    1.1865 H   0  0  0  0  0  0  0  0  0  0  0  0
    0.3301   -3.3100    0.8865 H   0  0  0  0  0  0  0  0  0  0  0  0
    4.5339   -4.1075    0.6535 H   0  0  0  0  0  0  0  0  0  0  0  0
    5.9442    2.9713   -2.2986 H   0  0  0  0  0  0  0  0  0  0  0  0
    7.1994   -1.0893   -1.7091 H   0  0  0  0  0  0  0  0  0  0  0  0
  1  2  2  0  0  0  0
  1131  1  0  0  0  0
  2  3  1  0  0  0  0
  2 22  1  0  0  0  0
  3  4  2  0  0  0  0
  4  5  1  0  0  0  0
  5  6  2  0  0  0  0
  5130  1  0  0  0  0
  6 52  1  0  0  0  0
  6  1  1  0  0  0  0
  7  3  1  0  0  0  0
  7  8  1  0  0  0  0
  7 11  1  0  0  0  0
  8  9  2  0  0  0  0
  9 10  1  0  0  0  0
 10  4  1  0  0  0  0
 10 50  2  0  0  0  0
 11 12  2  0  0  0  0
 11 18  1  0  0  0  0
 13 14  1  0  0  0  0
 13 12  1  0  0  0  0
 13 51  2  0  0  0  0
 14  8  1  0  0  0  0
 14 15  2  0  0  0  0
 15 16  1  0  0  0  0
 15133  1  0  0  0  0
 16 60  1  0  0  0  0
 16 17  2  0  0  0  0
 17  9  1  0  0  0  0
 17132  1  0  0  0  0
 18 19  2  0  0  0  0
 18 23  1  0  0  0  0
 19 20  1  0  0  0  0
 19135  1  0  0  0  0
 20 56  1  0  0  0  0
 20 21  2  0  0  0  0
 21 12  1  0  0  0  0
 21134  1  0  0  0  0
 24 23  1  0  0  0  0
 24 22  1  0  0  0  0
 25 26  2  0  0  0  0
 25138  1  0  0  0  0
 26 27  1  0  0  0  0
 26 46  1  0  0  0  0
 27 28  2  0  0  0  0
 28 29  1  0  0  0  0
 28 47  1  0  0  0  0
 29 30  2  0  0  0  0
 29139  1  0  0  0  0
 30 64  1  0  0  0  0
 30 25  1  0  0  0  0
 31 27  1  0  0  0  0
 31 32  1  0  0  0  0
 32 33  2  0  0  0  0
 34 35  2  0  0  0  0
 34 41  1  0  0  0  0
 34 31  1  0  0  0  0
 36 37  1  0  0  0  0
 36 35  1  0  0  0  0
 36 48  2  0  0  0  0
 37 32  1  0  0  0  0
 37 38  2  0  0  0  0
 38 39  1  0  0  0  0
 38140  1  0  0  0  0
 39 72  1  0  0  0  0
 39 40  2  0  0  0  0
 40 33  1  0  0  0  0
 40141  1  0  0  0  0
 41 42  2  0  0  0  0
 41 45  1  0  0  0  0
 42 43  1  0  0  0  0
 42136  1  0  0  0  0
 43 68  1  0  0  0  0
 43 44  2  0  0  0  0
 44 35  1  0  0  0  0
 44137  1  0  0  0  0
 45 24  1  0  0  0  0
 46 24  1  0  0  0  0
 47 33  1  0  0  0  0
 47 49  2  0  0  0  0
 52 53  1  0  0  0  0
 52 54  1  0  0  0  0
 52 55  1  0  0  0  0
 53121  1  0  0  0  0
 53122  1  0  0  0  0
 53123  1  0  0  0  0
 54127  1  0  0  0  0
 54128  1  0  0  0  0
 54129  1  0  0  0  0
 55124  1  0  0  0  0
 55125  1  0  0  0  0
 55126  1  0  0  0  0
 56 57  1  0  0  0  0
 56 58  1  0  0  0  0
 56 59  1  0  0  0  0
 57 97  1  0  0  0  0
 57 98  1  0  0  0  0
 57 99  1  0  0  0  0
 58 94  1  0  0  0  0
 58 95  1  0  0  0  0
 58 96  1  0  0  0  0
 59100  1  0  0  0  0
 59101  1  0  0  0  0
 59102  1  0  0  0  0
 60 61  1  0  0  0  0
 60 62  1  0  0  0  0
 60 63  1  0  0  0  0
 61109  1  0  0  0  0
 61110  1  0  0  0  0
 61111  1  0  0  0  0
 62106  1  0  0  0  0
 62107  1  0  0  0  0
 62108  1  0  0  0  0
 63103  1  0  0  0  0
 63104  1  0  0  0  0
 63105  1  0  0  0  0
 64 65  1  0  0  0  0
 64 66  1  0  0  0  0
 64 67  1  0  0  0  0
 65112  1  0  0  0  0
 65113  1  0  0  0  0
 65114  1  0  0  0  0
 66115  1  0  0  0  0
 66116  1  0  0  0  0
 66117  1  0  0  0  0
 67118  1  0  0  0  0
 67119  1  0  0  0  0
 67120  1  0  0  0  0
 68 69  1  0  0  0  0
 68 70  1  0  0  0  0
 68 71  1  0  0  0  0
 69 91  1  0  0  0  0
 69 92  1  0  0  0  0
 69 93  1  0  0  0  0
 70 85  1  0  0  0  0
 70 86  1  0  0  0  0
 70 87  1  0  0  0  0
 71 88  1  0  0  0  0
 71 89  1  0  0  0  0
 71 90  1  0  0  0  0
 72 73  1  0  0  0  0
 72 74  1  0  0  0  0
 72 75  1  0  0  0  0
 73 79  1  0  0  0  0
 73 80  1  0  0  0  0
 73 81  1  0  0  0  0
 74 76  1  0  0  0  0
 74 77  1  0  0  0  0
 74 78  1  0  0  0  0
 75 82  1  0  0  0  0
 75 83  1  0  0  0  0
 75 84  1  0  0  0  0
M  CHG  1   1   0
M  END
