energy: -209.290064338733 gnorm: 0.000491831111 xtb: 6.6.1 (8d0f1dd)_energy: -209.290064338733 gnorm: 0.000491831111 xtb: 6.6.1 (8d0f1dd)
 OpenBabel11122409353D

282304  0  0  0  0  0  0  0  0999 V2000
   -2.1244   -2.8558    1.6688 C   0  0  0  0  0  0  0  0  0  0  0  0
   -2.0137   -1.5799    1.0988 C   0  0  0  0  0  0  0  0  0  0  0  0
   -2.7563   -1.2797   -0.0918 C   0  0  0  0  0  0  0  0  0  0  0  0
   -3.1918   -2.4303   -0.8105 C   0  0  0  0  0  0  0  0  0  0  0  0
   -3.1742   -3.7002   -0.2626 C   0  0  0  0  0  0  0  0  0  0  0  0
   -2.7566   -3.9205    1.0466 C   0  0  0  0  0  0  0  0  0  0  0  0
   -3.2734   -0.0036   -0.4722 C   0  0  1  0  0  0  0  0  0  0  0  0
   -4.3130    0.0072   -1.4593 C   0  0  0  0  0  0  0  0  0  0  0  0
   -4.4784   -1.0534   -2.3743 C   0  0  0  0  0  0  0  0  0  0  0  0
   -3.7882   -2.3201   -2.1464 C   0  0  0  0  0  0  0  0  0  0  0  0
   -3.0243    1.2607    0.1733 C   0  0  0  0  0  0  0  0  0  0  0  0
   -4.0709    2.2098    0.2711 C   0  0  0  0  0  0  0  0  0  0  0  0
   -5.2866    2.0999   -0.5344 C   0  0  0  0  0  0  0  0  0  0  0  0
   -5.2345    1.0677   -1.5720 C   0  0  0  0  0  0  0  0  0  0  0  0
   -6.1669    1.1104   -2.6021 C   0  0  0  0  0  0  0  0  0  0  0  0
   -6.2312    0.1274   -3.5793 C   0  0  0  0  0  0  0  0  0  0  0  0
   -5.3849   -0.9642   -3.4208 C   0  0  0  0  0  0  0  0  0  0  0  0
   -1.7702    1.6844    0.6798 C   0  0  0  0  0  0  0  0  0  0  0  0
   -1.6836    2.8256    1.4706 C   0  0  0  0  0  0  0  0  0  0  0  0
   -2.7765    3.6451    1.7310 C   0  0  0  0  0  0  0  0  0  0  0  0
   -3.9511    3.3470    1.0631 C   0  0  0  0  0  0  0  0  0  0  0  0
   -1.2465   -0.7209    1.7629 O   0  0  0  0  0  0  0  0  0  0  0  0
   -0.6329    1.0820    0.3088 O   0  0  0  0  0  0  0  0  0  0  0  0
   -0.1237   -0.0502    1.0343 B   0  5  1  0  0  0  0  0  0  0  0  0
    1.3871   -2.9707    0.8603 C   0  0  0  0  0  0  0  0  0  0  0  0
    1.5961   -1.6509    0.4734 C   0  0  0  0  0  0  0  0  0  0  0  0
    2.9137   -1.1428    0.3524 C   0  0  0  0  0  0  0  0  0  0  0  0
    3.9427   -2.1159    0.3542 C   0  0  0  0  0  0  0  0  0  0  0  0
    3.7006   -3.4312    0.7364 C   0  0  0  0  0  0  0  0  0  0  0  0
    2.4287   -3.8703    1.0589 C   0  0  0  0  0  0  0  0  0  0  0  0
    3.2524    0.2457    0.1670 C   0  0  2  0  0  0  0  0  0  0  0  0
    4.4573    0.4885   -0.5710 C   0  0  0  0  0  0  0  0  0  0  0  0
    5.4057   -0.5240   -0.8204 C   0  0  0  0  0  0  0  0  0  0  0  0
    2.6450    1.3718    0.8030 C   0  0  0  0  0  0  0  0  0  0  0  0
    3.1772    2.6674    0.5423 C   0  0  0  0  0  0  0  0  0  0  0  0
    4.0173    2.9311   -0.6312 C   0  0  0  0  0  0  0  0  0  0  0  0
    4.7677    1.7641   -1.0867 C   0  0  0  0  0  0  0  0  0  0  0  0
    5.8558    1.9545   -1.9262 C   0  0  0  0  0  0  0  0  0  0  0  0
    6.7397    0.9286   -2.2408 C   0  0  0  0  0  0  0  0  0  0  0  0
    6.5143   -0.2953   -1.6272 C   0  0  0  0  0  0  0  0  0  0  0  0
    1.6886    1.3357    1.8721 C   0  0  0  0  0  0  0  0  0  0  0  0
    1.6518    2.3920    2.7929 C   0  0  0  0  0  0  0  0  0  0  0  0
    2.3562    3.5741    2.6314 C   0  0  0  0  0  0  0  0  0  0  0  0
    3.0210    3.7263    1.4185 C   0  0  0  0  0  0  0  0  0  0  0  0
    0.8407    0.3394    2.1111 O   0  0  0  0  0  0  0  0  0  0  0  0
    0.5355   -0.9231    0.0999 O   0  0  0  0  0  0  0  0  0  0  0  0
    5.2848   -1.8172   -0.1439 C   0  0  0  0  0  0  0  0  0  0  0  0
    4.1701    4.0537   -1.1027 O   0  0  0  0  0  0  0  0  0  0  0  0
    6.2244   -2.6050   -0.0618 O   0  0  0  0  0  0  0  0  0  0  0  0
   -3.8130   -3.2519   -2.9443 O   0  0  0  0  0  0  0  0  0  0  0  0
   -6.2528    2.8475   -0.4006 O   0  0  0  0  0  0  0  0  0  0  0  0
   -3.0756   -5.2364    1.7355 C   0  0  0  0  0  0  0  0  0  0  0  0
   -2.2825   -5.4365    3.0285 C   0  0  0  0  0  0  0  0  0  0  0  0
   -2.8133   -6.4337    0.8122 C   0  0  0  0  0  0  0  0  0  0  0  0
   -4.5737   -5.1912    2.0810 C   0  0  0  0  0  0  0  0  0  0  0  0
   -2.6448    4.8069    2.6992 C   0  0  0  0  0  0  0  0  0  0  0  0
   -3.9094    5.6674    2.7657 C   0  0  0  0  0  0  0  0  0  0  0  0
   -2.3842    4.2172    4.0928 C   0  0  0  0  0  0  0  0  0  0  0  0
   -1.4764    5.7045    2.2757 C   0  0  0  0  0  0  0  0  0  0  0  0
   -7.1963    0.1728   -4.7514 C   0  0  0  0  0  0  0  0  0  0  0  0
   -6.3925    0.0961   -6.0570 C   0  0  0  0  0  0  0  0  0  0  0  0
   -8.0294    1.4567   -4.7719 C   0  0  0  0  0  0  0  0  0  0  0  0
   -8.1516   -1.0254   -4.6594 C   0  0  0  0  0  0  0  0  0  0  0  0
    2.1432   -5.2607    1.5973 C   0  0  0  0  0  0  0  0  0  0  0  0
    1.0792   -5.9445    0.7308 C   0  0  0  0  0  0  0  0  0  0  0  0
    1.6336   -5.0998    3.0366 C   0  0  0  0  0  0  0  0  0  0  0  0
    3.3872   -6.1529    1.6196 C   0  0  0  0  0  0  0  0  0  0  0  0
    2.4947    4.6339    3.7111 C   0  0  0  0  0  0  0  0  0  0  0  0
    3.9105    4.4801    4.2917 C   0  0  0  0  0  0  0  0  0  0  0  0
    2.3438    6.0471    3.1325 C   0  0  0  0  0  0  0  0  0  0  0  0
    1.4815    4.4612    4.8445 C   0  0  0  0  0  0  0  0  0  0  0  0
    7.9094    1.1963   -3.1721 C   0  0  0  0  0  0  0  0  0  0  0  0
    8.8128    2.2661   -2.5430 C   0  0  0  0  0  0  0  0  0  0  0  0
    8.7486   -0.0578   -3.4296 C   0  0  0  0  0  0  0  0  0  0  0  0
    7.3680    1.7004   -4.5170 C   0  0  0  0  0  0  0  0  0  0  0  0
    9.5522    0.1774   -4.1259 H   0  0  0  0  0  0  0  0  0  0  0  0
    8.1417   -0.8476   -3.8658 H   0  0  0  0  0  0  0  0  0  0  0  0
    9.1964   -0.4244   -2.5092 H   0  0  0  0  0  0  0  0  0  0  0  0
    9.6632    2.4703   -3.1914 H   0  0  0  0  0  0  0  0  0  0  0  0
    9.1858    1.9226   -1.5801 H   0  0  0  0  0  0  0  0  0  0  0  0
    8.2703    3.1942   -2.3862 H   0  0  0  0  0  0  0  0  0  0  0  0
    8.1892    1.8970   -5.2043 H   0  0  0  0  0  0  0  0  0  0  0  0
    6.7985    2.6170   -4.3930 H   0  0  0  0  0  0  0  0  0  0  0  0
    6.7155    0.9522   -4.9621 H   0  0  0  0  0  0  0  0  0  0  0  0
    2.3373    6.7783    3.9392 H   0  0  0  0  0  0  0  0  0  0  0  0
    1.4148    6.1396    2.5769 H   0  0  0  0  0  0  0  0  0  0  0  0
    3.1657    6.2929    2.4667 H   0  0  0  0  0  0  0  0  0  0  0  0
    1.6270    5.2432    5.5885 H   0  0  0  0  0  0  0  0  0  0  0  0
    1.6066    3.5019    5.3398 H   0  0  0  0  0  0  0  0  0  0  0  0
    0.4662    4.5363    4.4673 H   0  0  0  0  0  0  0  0  0  0  0  0
    4.0855    5.2272    5.0642 H   0  0  0  0  0  0  0  0  0  0  0  0
    4.6589    4.6025    3.5125 H   0  0  0  0  0  0  0  0  0  0  0  0
    4.0338    3.4914    4.7289 H   0  0  0  0  0  0  0  0  0  0  0  0
   -2.1986    5.0098    4.8163 H   0  0  0  0  0  0  0  0  0  0  0  0
   -1.5292    3.5475    4.0735 H   0  0  0  0  0  0  0  0  0  0  0  0
   -3.2490    3.6440    4.4210 H   0  0  0  0  0  0  0  0  0  0  0  0
   -3.7604    6.4781    3.4776 H   0  0  0  0  0  0  0  0  0  0  0  0
   -4.7645    5.0819    3.0939 H   0  0  0  0  0  0  0  0  0  0  0  0
   -4.1330    6.1041    1.7953 H   0  0  0  0  0  0  0  0  0  0  0  0
   -1.3556    6.5260    2.9806 H   0  0  0  0  0  0  0  0  0  0  0  0
   -1.6640    6.1201    1.2878 H   0  0  0  0  0  0  0  0  0  0  0  0
   -0.5484    5.1432    2.2339 H   0  0  0  0  0  0  0  0  0  0  0  0
   -8.8618   -1.0052   -5.4845 H   0  0  0  0  0  0  0  0  0  0  0  0
   -8.7064   -0.9914   -3.7238 H   0  0  0  0  0  0  0  0  0  0  0  0
   -7.6076   -1.9649   -4.6985 H   0  0  0  0  0  0  0  0  0  0  0  0
   -8.6822    1.4543   -5.6435 H   0  0  0  0  0  0  0  0  0  0  0  0
   -7.3893    2.3338   -4.8298 H   0  0  0  0  0  0  0  0  0  0  0  0
   -8.6524    1.5325   -3.8840 H   0  0  0  0  0  0  0  0  0  0  0  0
   -7.0623    0.1235   -6.9149 H   0  0  0  0  0  0  0  0  0  0  0  0
   -5.8095   -0.8191   -6.1062 H   0  0  0  0  0  0  0  0  0  0  0  0
   -5.7081    0.9393   -6.1249 H   0  0  0  0  0  0  0  0  0  0  0  0
    0.8528   -6.9354    1.1223 H   0  0  0  0  0  0  0  0  0  0  0  0
    1.4403   -6.0495   -0.2902 H   0  0  0  0  0  0  0  0  0  0  0  0
    0.1630   -5.3632    0.7056 H   0  0  0  0  0  0  0  0  0  0  0  0
    1.3329   -6.0628    3.4473 H   0  0  0  0  0  0  0  0  0  0  0  0
    0.7875   -4.4194    3.0709 H   0  0  0  0  0  0  0  0  0  0  0  0
    2.4197   -4.6858    3.6650 H   0  0  0  0  0  0  0  0  0  0  0  0
    3.1247   -7.1329    2.0159 H   0  0  0  0  0  0  0  0  0  0  0  0
    4.1622   -5.7287    2.2530 H   0  0  0  0  0  0  0  0  0  0  0  0
    3.7860   -6.2874    0.6170 H   0  0  0  0  0  0  0  0  0  0  0  0
   -2.5496   -6.3917    3.4783 H   0  0  0  0  0  0  0  0  0  0  0  0
   -2.5041   -4.6546    3.7502 H   0  0  0  0  0  0  0  0  0  0  0  0
   -1.2156   -5.4422    2.8275 H   0  0  0  0  0  0  0  0  0  0  0  0
   -4.8781   -6.1176    2.5655 H   0  0  0  0  0  0  0  0  0  0  0  0
   -5.1695   -5.0562    1.1814 H   0  0  0  0  0  0  0  0  0  0  0  0
   -4.7812   -4.3616    2.7535 H   0  0  0  0  0  0  0  0  0  0  0  0
   -2.9412   -7.3623    1.3660 H   0  0  0  0  0  0  0  0  0  0  0  0
   -1.8010   -6.4041    0.4193 H   0  0  0  0  0  0  0  0  0  0  0  0
   -3.5049   -6.4478   -0.0250 H   0  0  0  0  0  0  0  0  0  0  0  0
   -3.5591   -4.4980   -0.8779 H   0  0  0  0  0  0  0  0  0  0  0  0
   -1.6556   -2.9629    2.6349 H   0  0  0  0  0  0  0  0  0  0  0  0
   -5.4224   -1.8088   -4.0935 H   0  0  0  0  0  0  0  0  0  0  0  0
   -6.8426    1.9514   -2.5943 H   0  0  0  0  0  0  0  0  0  0  0  0
   -4.8178    3.9868    1.1080 H   0  0  0  0  0  0  0  0  0  0  0  0
   -0.7031    3.0536    1.8597 H   0  0  0  0  0  0  0  0  0  0  0  0
    1.0085    2.2288    3.6438 H   0  0  0  0  0  0  0  0  0  0  0  0
    3.4932    4.6560    1.1425 H   0  0  0  0  0  0  0  0  0  0  0  0
    0.3565   -3.2673    0.9803 H   0  0  0  0  0  0  0  0  0  0  0  0
    4.5566   -4.0868    0.7472 H   0  0  0  0  0  0  0  0  0  0  0  0
    6.0001    2.9577   -2.3007 H   0  0  0  0  0  0  0  0  0  0  0  0
    7.1937   -1.1252   -1.7439 H   0  0  0  0  0  0  0  0  0  0  0  0
   -2.1244   -2.8558    9.6688 C   0  0  0  0  0  0  0  0  0  0  0  0
   -2.0137   -1.5799    9.0988 C   0  0  0  0  0  0  0  0  0  0  0  0
   -2.7563   -1.2797    7.9082 C   0  0  0  0  0  0  0  0  0  0  0  0
   -3.1918   -2.4303    7.1895 C   0  0  0  0  0  0  0  0  0  0  0  0
   -3.1742   -3.7002    7.7374 C   0  0  0  0  0  0  0  0  0  0  0  0
   -2.7566   -3.9205    9.0466 C   0  0  0  0  0  0  0  0  0  0  0  0
   -3.2734   -0.0036    7.5278 C   0  0  1  0  0  0  0  0  0  0  0  0
   -4.3130    0.0072    6.5407 C   0  0  0  0  0  0  0  0  0  0  0  0
   -4.4784   -1.0534    5.6257 C   0  0  0  0  0  0  0  0  0  0  0  0
   -3.7882   -2.3201    5.8536 C   0  0  0  0  0  0  0  0  0  0  0  0
   -3.0243    1.2607    8.1733 C   0  0  0  0  0  0  0  0  0  0  0  0
   -4.0709    2.2098    8.2711 C   0  0  0  0  0  0  0  0  0  0  0  0
   -5.2866    2.0999    7.4656 C   0  0  0  0  0  0  0  0  0  0  0  0
   -5.2345    1.0677    6.4280 C   0  0  0  0  0  0  0  0  0  0  0  0
   -6.1669    1.1104    5.3979 C   0  0  0  0  0  0  0  0  0  0  0  0
   -6.2312    0.1274    4.4207 C   0  0  0  0  0  0  0  0  0  0  0  0
   -5.3849   -0.9642    4.5792 C   0  0  0  0  0  0  0  0  0  0  0  0
   -1.7702    1.6844    8.6798 C   0  0  0  0  0  0  0  0  0  0  0  0
   -1.6836    2.8256    9.4706 C   0  0  0  0  0  0  0  0  0  0  0  0
   -2.7765    3.6451    9.7310 C   0  0  0  0  0  0  0  0  0  0  0  0
   -3.9511    3.3470    9.0631 C   0  0  0  0  0  0  0  0  0  0  0  0
   -1.2465   -0.7209    9.7629 O   0  0  0  0  0  0  0  0  0  0  0  0
   -0.6329    1.0820    8.3088 O   0  0  0  0  0  0  0  0  0  0  0  0
   -0.1237   -0.0502    9.0343 B   0  5  1  0  0  0  0  0  0  0  0  0
    1.3871   -2.9707    8.8603 C   0  0  0  0  0  0  0  0  0  0  0  0
    1.5961   -1.6509    8.4734 C   0  0  0  0  0  0  0  0  0  0  0  0
    2.9137   -1.1428    8.3524 C   0  0  0  0  0  0  0  0  0  0  0  0
    3.9427   -2.1159    8.3542 C   0  0  0  0  0  0  0  0  0  0  0  0
    3.7006   -3.4312    8.7364 C   0  0  0  0  0  0  0  0  0  0  0  0
    2.4287   -3.8703    9.0589 C   0  0  0  0  0  0  0  0  0  0  0  0
    3.2524    0.2457    8.1670 C   0  0  2  0  0  0  0  0  0  0  0  0
    4.4573    0.4885    7.4290 C   0  0  0  0  0  0  0  0  0  0  0  0
    5.4057   -0.5240    7.1796 C   0  0  0  0  0  0  0  0  0  0  0  0
    2.6450    1.3718    8.8030 C   0  0  0  0  0  0  0  0  0  0  0  0
    3.1772    2.6674    8.5423 C   0  0  0  0  0  0  0  0  0  0  0  0
    4.0173    2.9311    7.3688 C   0  0  0  0  0  0  0  0  0  0  0  0
    4.7677    1.7641    6.9133 C   0  0  0  0  0  0  0  0  0  0  0  0
    5.8558    1.9545    6.0738 C   0  0  0  0  0  0  0  0  0  0  0  0
    6.7397    0.9286    5.7592 C   0  0  0  0  0  0  0  0  0  0  0  0
    6.5143   -0.2953    6.3728 C   0  0  0  0  0  0  0  0  0  0  0  0
    1.6886    1.3357    9.8721 C   0  0  0  0  0  0  0  0  0  0  0  0
    1.6518    2.3920   10.7929 C   0  0  0  0  0  0  0  0  0  0  0  0
    2.3562    3.5741   10.6314 C   0  0  0  0  0  0  0  0  0  0  0  0
    3.0210    3.7263    9.4185 C   0  0  0  0  0  0  0  0  0  0  0  0
    0.8407    0.3394   10.1111 O   0  0  0  0  0  0  0  0  0  0  0  0
    0.5355   -0.9231    8.0999 O   0  0  0  0  0  0  0  0  0  0  0  0
    5.2848   -1.8172    7.8561 C   0  0  0  0  0  0  0  0  0  0  0  0
    4.1701    4.0537    6.8973 O   0  0  0  0  0  0  0  0  0  0  0  0
    6.2244   -2.6050    7.9382 O   0  0  0  0  0  0  0  0  0  0  0  0
   -3.8130   -3.2519    5.0557 O   0  0  0  0  0  0  0  0  0  0  0  0
   -6.2528    2.8475    7.5994 O   0  0  0  0  0  0  0  0  0  0  0  0
   -3.0756   -5.2364    9.7355 C   0  0  0  0  0  0  0  0  0  0  0  0
   -2.2825   -5.4365   11.0285 C   0  0  0  0  0  0  0  0  0  0  0  0
   -2.8133   -6.4337    8.8122 C   0  0  0  0  0  0  0  0  0  0  0  0
   -4.5737   -5.1912   10.0810 C   0  0  0  0  0  0  0  0  0  0  0  0
   -2.6448    4.8069   10.6992 C   0  0  0  0  0  0  0  0  0  0  0  0
   -3.9094    5.6674   10.7657 C   0  0  0  0  0  0  0  0  0  0  0  0
   -2.3842    4.2172   12.0928 C   0  0  0  0  0  0  0  0  0  0  0  0
   -1.4764    5.7045   10.2757 C   0  0  0  0  0  0  0  0  0  0  0  0
   -7.1963    0.1728    3.2486 C   0  0  0  0  0  0  0  0  0  0  0  0
   -6.3925    0.0961    1.9430 C   0  0  0  0  0  0  0  0  0  0  0  0
   -8.0294    1.4567    3.2281 C   0  0  0  0  0  0  0  0  0  0  0  0
   -8.1516   -1.0254    3.3406 C   0  0  0  0  0  0  0  0  0  0  0  0
    2.1432   -5.2607    9.5973 C   0  0  0  0  0  0  0  0  0  0  0  0
    1.0792   -5.9445    8.7308 C   0  0  0  0  0  0  0  0  0  0  0  0
    1.6336   -5.0998   11.0366 C   0  0  0  0  0  0  0  0  0  0  0  0
    3.3872   -6.1529    9.6196 C   0  0  0  0  0  0  0  0  0  0  0  0
    2.4947    4.6339   11.7111 C   0  0  0  0  0  0  0  0  0  0  0  0
    3.9105    4.4801   12.2917 C   0  0  0  0  0  0  0  0  0  0  0  0
    2.3438    6.0471   11.1325 C   0  0  0  0  0  0  0  0  0  0  0  0
    1.4815    4.4612   12.8445 C   0  0  0  0  0  0  0  0  0  0  0  0
    7.9094    1.1963    4.8279 C   0  0  0  0  0  0  0  0  0  0  0  0
    8.8128    2.2661    5.4570 C   0  0  0  0  0  0  0  0  0  0  0  0
    8.7486   -0.0578    4.5704 C   0  0  0  0  0  0  0  0  0  0  0  0
    7.3680    1.7004    3.4830 C   0  0  0  0  0  0  0  0  0  0  0  0
    9.5522    0.1774    3.8741 H   0  0  0  0  0  0  0  0  0  0  0  0
    8.1417   -0.8476    4.1342 H   0  0  0  0  0  0  0  0  0  0  0  0
    9.1964   -0.4244    5.4908 H   0  0  0  0  0  0  0  0  0  0  0  0
    9.6632    2.4703    4.8086 H   0  0  0  0  0  0  0  0  0  0  0  0
    9.1858    1.9226    6.4199 H   0  0  0  0  0  0  0  0  0  0  0  0
    8.2703    3.1942    5.6138 H   0  0  0  0  0  0  0  0  0  0  0  0
    8.1892    1.8970    2.7957 H   0  0  0  0  0  0  0  0  0  0  0  0
    6.7985    2.6170    3.6070 H   0  0  0  0  0  0  0  0  0  0  0  0
    6.7155    0.9522    3.0379 H   0  0  0  0  0  0  0  0  0  0  0  0
    2.3373    6.7783   11.9392 H   0  0  0  0  0  0  0  0  0  0  0  0
    1.4148    6.1396   10.5769 H   0  0  0  0  0  0  0  0  0  0  0  0
    3.1657    6.2929   10.4667 H   0  0  0  0  0  0  0  0  0  0  0  0
    1.6270    5.2432   13.5885 H   0  0  0  0  0  0  0  0  0  0  0  0
    1.6066    3.5019   13.3398 H   0  0  0  0  0  0  0  0  0  0  0  0
    0.4662    4.5363   12.4673 H   0  0  0  0  0  0  0  0  0  0  0  0
    4.0855    5.2272   13.0642 H   0  0  0  0  0  0  0  0  0  0  0  0
    4.6589    4.6025   11.5125 H   0  0  0  0  0  0  0  0  0  0  0  0
    4.0338    3.4914   12.7289 H   0  0  0  0  0  0  0  0  0  0  0  0
   -2.1986    5.0098   12.8163 H   0  0  0  0  0  0  0  0  0  0  0  0
   -1.5292    3.5475   12.0735 H   0  0  0  0  0  0  0  0  0  0  0  0
   -3.2490    3.6440   12.4210 H   0  0  0  0  0  0  0  0  0  0  0  0
   -3.7604    6.4781   11.4776 H   0  0  0  0  0  0  0  0  0  0  0  0
   -4.7645    5.0819   11.0939 H   0  0  0  0  0  0  0  0  0  0  0  0
   -4.1330    6.1041    9.7953 H   0  0  0  0  0  0  0  0  0  0  0  0
   -1.3556    6.5260   10.9806 H   0  0  0  0  0  0  0  0  0  0  0  0
   -1.6640    6.1201    9.2878 H   0  0  0  0  0  0  0  0  0  0  0  0
   -0.5484    5.1432   10.2339 H   0  0  0  0  0  0  0  0  0  0  0  0
   -8.8618   -1.0052    2.5155 H   0  0  0  0  0  0  0  0  0  0  0  0
   -8.7064   -0.9914    4.2762 H   0  0  0  0  0  0  0  0  0  0  0  0
   -7.6076   -1.9649    3.3015 H   0  0  0  0  0  0  0  0  0  0  0  0
   -8.6822    1.4543    2.3565 H   0  0  0  0  0  0  0  0  0  0  0  0
   -7.3893    2.3338    3.1702 H   0  0  0  0  0  0  0  0  0  0  0  0
   -8.6524    1.5325    4.1160 H   0  0  0  0  0  0  0  0  0  0  0  0
   -7.0623    0.1235    1.0851 H   0  0  0  0  0  0  0  0  0  0  0  0
   -5.8095   -0.8191    1.8938 H   0  0  0  0  0  0  0  0  0  0  0  0
   -5.7081    0.9393    1.8751 H   0  0  0  0  0  0  0  0  0  0  0  0
    0.8528   -6.9354    9.1223 H   0  0  0  0  0  0  0  0  0  0  0  0
    1.4403   -6.0495    7.7098 H   0  0  0  0  0  0  0  0  0  0  0  0
    0.1630   -5.3632    8.7056 H   0  0  0  0  0  0  0  0  0  0  0  0
    1.3329   -6.0628   11.4473 H   0  0  0  0  0  0  0  0  0  0  0  0
    0.7875   -4.4194   11.0709 H   0  0  0  0  0  0  0  0  0  0  0  0
    2.4197   -4.6858   11.6650 H   0  0  0  0  0  0  0  0  0  0  0  0
    3.1247   -7.1329   10.0159 H   0  0  0  0  0  0  0  0  0  0  0  0
    4.1622   -5.7287   10.2530 H   0  0  0  0  0  0  0  0  0  0  0  0
    3.7860   -6.2874    8.6170 H   0  0  0  0  0  0  0  0  0  0  0  0
   -2.5496   -6.3917   11.4783 H   0  0  0  0  0  0  0  0  0  0  0  0
   -2.5041   -4.6546   11.7502 H   0  0  0  0  0  0  0  0  0  0  0  0
   -1.2156   -5.4422   10.8275 H   0  0  0  0  0  0  0  0  0  0  0  0
   -4.8781   -6.1176   10.5655 H   0  0  0  0  0  0  0  0  0  0  0  0
   -5.1695   -5.0562    9.1814 H   0  0  0  0  0  0  0  0  0  0  0  0
   -4.7812   -4.3616   10.7535 H   0  0  0  0  0  0  0  0  0  0  0  0
   -2.9412   -7.3623    9.3660 H   0  0  0  0  0  0  0  0  0  0  0  0
   -1.8010   -6.4041    8.4193 H   0  0  0  0  0  0  0  0  0  0  0  0
   -3.5049   -6.4478    7.9750 H   0  0  0  0  0  0  0  0  0  0  0  0
   -3.5591   -4.4980    7.1221 H   0  0  0  0  0  0  0  0  0  0  0  0
   -1.6556   -2.9629   10.6349 H   0  0  0  0  0  0  0  0  0  0  0  0
   -5.4224   -1.8088    3.9065 H   0  0  0  0  0  0  0  0  0  0  0  0
   -6.8426    1.9514    5.4057 H   0  0  0  0  0  0  0  0  0  0  0  0
   -4.8178    3.9868    9.1080 H   0  0  0  0  0  0  0  0  0  0  0  0
   -0.7031    3.0536    9.8597 H   0  0  0  0  0  0  0  0  0  0  0  0
    1.0085    2.2288   11.6438 H   0  0  0  0  0  0  0  0  0  0  0  0
    3.4932    4.6560    9.1425 H   0  0  0  0  0  0  0  0  0  0  0  0
    0.3565   -3.2673    8.9803 H   0  0  0  0  0  0  0  0  0  0  0  0
    4.5566   -4.0868    8.7472 H   0  0  0  0  0  0  0  0  0  0  0  0
    6.0001    2.9577    5.6993 H   0  0  0  0  0  0  0  0  0  0  0  0
    7.1937   -1.1252    6.2561 H   0  0  0  0  0  0  0  0  0  0  0  0
  1  2  2  0  0  0  0
  1131  1  0  0  0  0
  2  3  1  0  0  0  0
  2 22  1  0  0  0  0
  3  4  2  0  0  0  0
  4  5  1  0  0  0  0
  5  6  2  0  0  0  0
  5130  1  0  0  0  0
  6 52  1  0  0  0  0
  6  1  1  0  0  0  0
  7  3  1  1  0  0  0
  7  8  1  0  0  0  0
  7 11  1  0  0  0  0
  8  9  2  0  0  0  0
  9 10  1  0  0  0  0
 10  4  1  0  0  0  0
 10 50  2  0  0  0  0
 11 12  2  0  0  0  0
 11 18  1  0  0  0  0
 13 14  1  0  0  0  0
 13 12  1  0  0  0  0
 13 51  2  0  0  0  0
 14  8  1  0  0  0  0
 14 15  2  0  0  0  0
 15 16  1  0  0  0  0
 15133  1  0  0  0  0
 16 60  1  0  0  0  0
 16 17  2  0  0  0  0
 17  9  1  0  0  0  0
 17132  1  0  0  0  0
 18 19  2  0  0  0  0
 18 23  1  0  0  0  0
 19 20  1  0  0  0  0
 19135  1  0  0  0  0
 20 56  1  0  0  0  0
 20 21  2  0  0  0  0
 21 12  1  0  0  0  0
 21134  1  0  0  0  0
 24 23  1  6  0  0  0
 24 22  1  0  0  0  0
 25 26  2  0  0  0  0
 25138  1  0  0  0  0
 26 27  1  0  0  0  0
 26 46  1  0  0  0  0
 27 28  2  0  0  0  0
 28 29  1  0  0  0  0
 28 47  1  0  0  0  0
 29 30  2  0  0  0  0
 29139  1  0  0  0  0
 30 64  1  0  0  0  0
 30 25  1  0  0  0  0
 31 27  1  1  0  0  0
 31 32  1  0  0  0  0
 32 33  2  0  0  0  0
 34 35  2  0  0  0  0
 34 41  1  0  0  0  0
 34 31  1  0  0  0  0
 36 37  1  0  0  0  0
 36 35  1  0  0  0  0
 36 48  2  0  0  0  0
 37 32  1  0  0  0  0
 37 38  2  0  0  0  0
 38 39  1  0  0  0  0
 38140  1  0  0  0  0
 39 72  1  0  0  0  0
 39 40  2  0  0  0  0
 40 33  1  0  0  0  0
 40141  1  0  0  0  0
 41 42  2  0  0  0  0
 41 45  1  0  0  0  0
 42 43  1  0  0  0  0
 42136  1  0  0  0  0
 43 68  1  0  0  0  0
 43 44  2  0  0  0  0
 44 35  1  0  0  0  0
 44137  1  0  0  0  0
 45 24  1  0  0  0  0
 46 24  1  0  0  0  0
 47 33  1  0  0  0  0
 47 49  2  0  0  0  0
 52 53  1  0  0  0  0
 52 54  1  0  0  0  0
 52 55  1  0  0  0  0
 53121  1  0  0  0  0
 53122  1  0  0  0  0
 53123  1  0  0  0  0
 54127  1  0  0  0  0
 54128  1  0  0  0  0
 54129  1  0  0  0  0
 55124  1  0  0  0  0
 55125  1  0  0  0  0
 55126  1  0  0  0  0
 56 57  1  0  0  0  0
 56 58  1  0  0  0  0
 56 59  1  0  0  0  0
 57 97  1  0  0  0  0
 57 98  1  0  0  0  0
 57 99  1  0  0  0  0
 58 94  1  0  0  0  0
 58 95  1  0  0  0  0
 58 96  1  0  0  0  0
 59100  1  0  0  0  0
 59101  1  0  0  0  0
 59102  1  0  0  0  0
 60 61  1  0  0  0  0
 60 62  1  0  0  0  0
 60 63  1  0  0  0  0
 61109  1  0  0  0  0
 61110  1  0  0  0  0
 61111  1  0  0  0  0
 62106  1  0  0  0  0
 62107  1  0  0  0  0
 62108  1  0  0  0  0
 63103  1  0  0  0  0
 63104  1  0  0  0  0
 63105  1  0  0  0  0
 64 65  1  0  0  0  0
 64 66  1  0  0  0  0
 64 67  1  0  0  0  0
 65112  1  0  0  0  0
 65113  1  0  0  0  0
 65114  1  0  0  0  0
 66115  1  0  0  0  0
 66116  1  0  0  0  0
 66117  1  0  0  0  0
 67118  1  0  0  0  0
 67119  1  0  0  0  0
 67120  1  0  0  0  0
 68 69  1  0  0  0  0
 68 70  1  0  0  0  0
 68 71  1  0  0  0  0
 69 91  1  0  0  0  0
 69 92  1  0  0  0  0
 69 93  1  0  0  0  0
 70 85  1  0  0  0  0
 70 86  1  0  0  0  0
 70 87  1  0  0  0  0
 71 88  1  0  0  0  0
 71 89  1  0  0  0  0
 71 90  1  0  0  0  0
 72 73  1  0  0  0  0
 72 74  1  0  0  0  0
 72 75  1  0  0  0  0
 73 79  1  0  0  0  0
 73 80  1  0  0  0  0
 73 81  1  0  0  0  0
 74 76  1  0  0  0  0
 74 77  1  0  0  0  0
 74 78  1  0  0  0  0
 75 82  1  0  0  0  0
 75 83  1  0  0  0  0
 75 84  1  0  0  0  0
142143  2  0  0  0  0
142272  1  0  0  0  0
143144  1  0  0  0  0
143163  1  0  0  0  0
144145  2  0  0  0  0
145146  1  0  0  0  0
146147  2  0  0  0  0
146271  1  0  0  0  0
147193  1  0  0  0  0
147142  1  0  0  0  0
148144  1  1  0  0  0
148149  1  0  0  0  0
148152  1  0  0  0  0
149150  2  0  0  0  0
150151  1  0  0  0  0
151145  1  0  0  0  0
151191  2  0  0  0  0
152153  2  0  0  0  0
152159  1  0  0  0  0
154155  1  0  0  0  0
154153  1  0  0  0  0
154192  2  0  0  0  0
155149  1  0  0  0  0
155156  2  0  0  0  0
156157  1  0  0  0  0
156274  1  0  0  0  0
157201  1  0  0  0  0
157158  2  0  0  0  0
158150  1  0  0  0  0
158273  1  0  0  0  0
159160  2  0  0  0  0
159164  1  0  0  0  0
160161  1  0  0  0  0
160276  1  0  0  0  0
161197  1  0  0  0  0
161162  2  0  0  0  0
162153  1  0  0  0  0
162275  1  0  0  0  0
165164  1  6  0  0  0
165163  1  0  0  0  0
166167  2  0  0  0  0
166279  1  0  0  0  0
167168  1  0  0  0  0
167187  1  0  0  0  0
168169  2  0  0  0  0
169170  1  0  0  0  0
169188  1  0  0  0  0
170171  2  0  0  0  0
170280  1  0  0  0  0
171205  1  0  0  0  0
171166  1  0  0  0  0
172168  1  1  0  0  0
172173  1  0  0  0  0
173174  2  0  0  0  0
175176  2  0  0  0  0
175182  1  0  0  0  0
175172  1  0  0  0  0
177178  1  0  0  0  0
177176  1  0  0  0  0
177189  2  0  0  0  0
178173  1  0  0  0  0
178179  2  0  0  0  0
179180  1  0  0  0  0
179281  1  0  0  0  0
180213  1  0  0  0  0
180181  2  0  0  0  0
181174  1  0  0  0  0
181282  1  0  0  0  0
182183  2  0  0  0  0
182186  1  0  0  0  0
183184  1  0  0  0  0
183277  1  0  0  0  0
184209  1  0  0  0  0
184185  2  0  0  0  0
185176  1  0  0  0  0
185278  1  0  0  0  0
186165  1  0  0  0  0
187165  1  0  0  0  0
188174  1  0  0  0  0
188190  2  0  0  0  0
193194  1  0  0  0  0
193195  1  0  0  0  0
193196  1  0  0  0  0
194262  1  0  0  0  0
194263  1  0  0  0  0
194264  1  0  0  0  0
195268  1  0  0  0  0
195269  1  0  0  0  0
195270  1  0  0  0  0
196265  1  0  0  0  0
196266  1  0  0  0  0
196267  1  0  0  0  0
197198  1  0  0  0  0
197199  1  0  0  0  0
197200  1  0  0  0  0
198238  1  0  0  0  0
198239  1  0  0  0  0
198240  1  0  0  0  0
199235  1  0  0  0  0
199236  1  0  0  0  0
199237  1  0  0  0  0
200241  1  0  0  0  0
200242  1  0  0  0  0
200243  1  0  0  0  0
201202  1  0  0  0  0
201203  1  0  0  0  0
201204  1  0  0  0  0
202250  1  0  0  0  0
202251  1  0  0  0  0
202252  1  0  0  0  0
203247  1  0  0  0  0
203248  1  0  0  0  0
203249  1  0  0  0  0
204244  1  0  0  0  0
204245  1  0  0  0  0
204246  1  0  0  0  0
205206  1  0  0  0  0
205207  1  0  0  0  0
205208  1  0  0  0  0
206253  1  0  0  0  0
206254  1  0  0  0  0
206255  1  0  0  0  0
207256  1  0  0  0  0
207257  1  0  0  0  0
207258  1  0  0  0  0
208259  1  0  0  0  0
208260  1  0  0  0  0
208261  1  0  0  0  0
209210  1  0  0  0  0
209211  1  0  0  0  0
209212  1  0  0  0  0
210232  1  0  0  0  0
210233  1  0  0  0  0
210234  1  0  0  0  0
211226  1  0  0  0  0
211227  1  0  0  0  0
211228  1  0  0  0  0
212229  1  0  0  0  0
212230  1  0  0  0  0
212231  1  0  0  0  0
213214  1  0  0  0  0
213215  1  0  0  0  0
213216  1  0  0  0  0
214220  1  0  0  0  0
214221  1  0  0  0  0
214222  1  0  0  0  0
215217  1  0  0  0  0
215218  1  0  0  0  0
215219  1  0  0  0  0
216223  1  0  0  0  0
216224  1  0  0  0  0
216225  1  0  0  0  0
M  CHG  2  24  -1 165  -1
M  END
