 xtb: 6.7.1 (edcfbbe)
          12102414563D

282304  0     0  0            999 V2000
   -3.3739   -3.0260    1.6962 C   0  0  0  0  0  0  0  0  0  0  0  0
   -3.5882   -1.8419    0.9955 C   0  0  0  0  0  0  0  0  0  0  0  0
   -4.1167   -1.8534   -0.3229 C   0  0  0  0  0  0  0  0  0  0  0  0
   -4.3619   -3.1437   -0.8638 C   0  0  0  0  0  0  0  0  0  0  0  0
   -4.0734   -4.3064   -0.1600 C   0  0  0  0  0  0  0  0  0  0  0  0
   -3.5959   -4.2781    1.1417 C   0  0  0  0  0  0  0  0  0  0  0  0
   -4.5170   -0.6777   -1.0399 C   0  0  0  0  0  0  0  0  0  0  0  0
   -5.4974   -0.8868   -2.0658 C   0  0  0  0  0  0  0  0  0  0  0  0
   -5.7002   -2.1505   -2.6613 C   0  0  0  0  0  0  0  0  0  0  0  0
   -4.9725   -3.3245   -2.1782 C   0  0  0  0  0  0  0  0  0  0  0  0
   -4.0962    0.6840   -0.8237 C   0  0  0  0  0  0  0  0  0  0  0  0
   -4.9596    1.7305   -1.2505 C   0  0  0  0  0  0  0  0  0  0  0  0
   -6.2251    1.4797   -1.9411 C   0  0  0  0  0  0  0  0  0  0  0  0
   -6.3322    0.1483   -2.5299 C   0  0  0  0  0  0  0  0  0  0  0  0
   -7.2802   -0.0635   -3.5245 C   0  0  0  0  0  0  0  0  0  0  0  0
   -7.4307   -1.2933   -4.1453 C   0  0  0  0  0  0  0  0  0  0  0  0
   -6.6184   -2.3238   -3.6859 C   0  0  0  0  0  0  0  0  0  0  0  0
   -2.8301    1.1130   -0.3204 C   0  0  0  0  0  0  0  0  0  0  0  0
   -2.5203    2.4778   -0.2542 C   0  0  0  0  0  0  0  0  0  0  0  0
   -3.4008    3.4804   -0.6212 C   0  0  0  0  0  0  0  0  0  0  0  0
   -4.6307    3.0695   -1.1120 C   0  0  0  0  0  0  0  0  0  0  0  0
   -3.2974   -0.6922    1.6250 O   0  0  0  0  0  0  0  0  0  0  0  0
   -1.8516    0.2699    0.0390 O   0  0  0  0  0  0  0  0  0  0  0  0
   -1.8928   -0.2894    1.4176 B   0  0  0  0  0  0  0  0  0  0  0  0
    0.3655   -2.4698    3.0565 C   0  0  0  0  0  0  0  0  0  0  0  0
    0.1547   -1.4978    2.0757 C   0  0  0  0  0  0  0  0  0  0  0  0
    1.2602   -0.7484    1.5821 C   0  0  0  0  0  0  0  0  0  0  0  0
    2.4998   -1.4399    1.7065 C   0  0  0  0  0  0  0  0  0  0  0  0
    2.6775   -2.4626    2.6298 C   0  0  0  0  0  0  0  0  0  0  0  0
    1.6297   -2.9039    3.4282 C   0  0  0  0  0  0  0  0  0  0  0  0
    1.2648    0.5815    1.0334 C   0  0  0  0  0  0  0  0  0  0  0  0
    2.3722    0.9049    0.1834 C   0  0  0  0  0  0  0  0  0  0  0  0
    3.4118   -0.0099   -0.0871 C   0  0  0  0  0  0  0  0  0  0  0  0
    0.4638    1.6724    1.5049 C   0  0  0  0  0  0  0  0  0  0  0  0
    0.9042    3.0028    1.2306 C   0  0  0  0  0  0  0  0  0  0  0  0
    1.7325    3.2970    0.0625 C   0  0  0  0  0  0  0  0  0  0  0  0
    2.4970    2.1640   -0.4428 C   0  0  0  0  0  0  0  0  0  0  0  0
    3.4528    2.3891   -1.4241 C   0  0  0  0  0  0  0  0  0  0  0  0
    4.3768    1.4212   -1.7976 C   0  0  0  0  0  0  0  0  0  0  0  0
    4.3694    0.2457   -1.0605 C   0  0  0  0  0  0  0  0  0  0  0  0
   -0.6646    1.6300    2.3909 C   0  0  0  0  0  0  0  0  0  0  0  0
   -0.9031    2.7058    3.2516 C   0  0  0  0  0  0  0  0  0  0  0  0
   -0.2465    3.9217    3.1528 C   0  0  0  0  0  0  0  0  0  0  0  0
    0.5731    4.0792    2.0420 C   0  0  0  0  0  0  0  0  0  0  0  0
   -1.5629    0.6628    2.4752 O   0  0  0  0  0  0  0  0  0  0  0  0
   -1.0635   -1.4523    1.5475 O   0  0  0  0  0  0  0  0  0  0  0  0
    3.6010   -1.1697    0.7858 C   0  0  0  0  0  0  0  0  0  0  0  0
    1.8232    4.4290   -0.4146 O   0  0  0  0  0  0  0  0  0  0  0  0
    4.6074   -1.8731    0.7271 O   0  0  0  0  0  0  0  0  0  0  0  0
   -4.9663   -4.3925   -2.7892 O   0  0  0  0  0  0  0  0  0  0  0  0
   -7.0917    2.3399   -2.0937 O   0  0  0  0  0  0  0  0  0  0  0  0
   -3.2547   -5.5356    1.9200 C   0  0  0  0  0  0  0  0  0  0  0  0
   -3.7622   -5.4307    3.3635 C   0  0  0  0  0  0  0  0  0  0  0  0
   -1.7260   -5.6686    1.9156 C   0  0  0  0  0  0  0  0  0  0  0  0
   -3.8654   -6.7929    1.2904 C   0  0  0  0  0  0  0  0  0  0  0  0
   -3.0913    4.9649   -0.5463 C   0  0  0  0  0  0  0  0  0  0  0  0
   -3.1254    5.5466   -1.9671 C   0  0  0  0  0  0  0  0  0  0  0  0
   -4.1577    5.6495    0.3211 C   0  0  0  0  0  0  0  0  0  0  0  0
   -1.7230    5.2542    0.0663 C   0  0  0  0  0  0  0  0  0  0  0  0
   -8.4298   -1.5555   -5.2597 C   0  0  0  0  0  0  0  0  0  0  0  0
   -7.6737   -2.0481   -6.5014 C   0  0  0  0  0  0  0  0  0  0  0  0
   -9.2203   -0.3014   -5.6417 C   0  0  0  0  0  0  0  0  0  0  0  0
   -9.4213   -2.6319   -4.7964 C   0  0  0  0  0  0  0  0  0  0  0  0
    1.8191   -3.8142    4.6249 C   0  0  0  0  0  0  0  0  0  0  0  0
    0.8511   -5.0027    4.5607 C   0  0  0  0  0  0  0  0  0  0  0  0
    1.5200   -2.9792    5.8788 C   0  0  0  0  0  0  0  0  0  0  0  0
    3.2454   -4.3599    4.7147 C   0  0  0  0  0  0  0  0  0  0  0  0
   -0.4727    4.9999    4.1945 C   0  0  0  0  0  0  0  0  0  0  0  0
    0.0667    4.4733    5.5315 C   0  0  0  0  0  0  0  0  0  0  0  0
    0.2566    6.3007    3.8472 C   0  0  0  0  0  0  0  0  0  0  0  0
   -1.9702    5.3035    4.3320 C   0  0  0  0  0  0  0  0  0  0  0  0
    5.3797    1.7119   -2.9010 C   0  0  0  0  0  0  0  0  0  0  0  0
    6.2864    2.8682   -2.4564 C   0  0  0  0  0  0  0  0  0  0  0  0
    6.2573    0.4994   -3.2223 C   0  0  0  0  0  0  0  0  0  0  0  0
    4.6195    2.1081   -4.1742 C   0  0  0  0  0  0  0  0  0  0  0  0
    6.9194    0.7361   -4.0544 H   0  0  0  0  0  0  0  0  0  0  0  0
    5.6467   -0.3550   -3.5042 H   0  0  0  0  0  0  0  0  0  0  0  0
    6.8726    0.2254   -2.3690 H   0  0  0  0  0  0  0  0  0  0  0  0
    7.0172    3.0966   -3.2309 H   0  0  0  0  0  0  0  0  0  0  0  0
    6.8184    2.5971   -1.5467 H   0  0  0  0  0  0  0  0  0  0  0  0
    5.7052    3.7643   -2.2563 H   0  0  0  0  0  0  0  0  0  0  0  0
    5.3182    2.3128   -4.9843 H   0  0  0  0  0  0  0  0  0  0  0  0
    4.0151    2.9958   -4.0109 H   0  0  0  0  0  0  0  0  0  0  0  0
    3.9594    1.2997   -4.4820 H   0  0  0  0  0  0  0  0  0  0  0  0
    0.0857    7.0350    4.6328 H   0  0  0  0  0  0  0  0  0  0  0  0
   -0.1093    6.7128    2.9095 H   0  0  0  0  0  0  0  0  0  0  0  0
    1.3280    6.1342    3.7661 H   0  0  0  0  0  0  0  0  0  0  0  0
   -2.1237    6.1066    5.0505 H   0  0  0  0  0  0  0  0  0  0  0  0
   -2.5149    4.4338    4.6857 H   0  0  0  0  0  0  0  0  0  0  0  0
   -2.3854    5.6109    3.3738 H   0  0  0  0  0  0  0  0  0  0  0  0
   -0.1194    5.1943    6.3247 H   0  0  0  0  0  0  0  0  0  0  0  0
    1.1378    4.2923    5.4665 H   0  0  0  0  0  0  0  0  0  0  0  0
   -0.4153    3.5392    5.8054 H   0  0  0  0  0  0  0  0  0  0  0  0
   -3.9480    6.7151    0.4020 H   0  0  0  0  0  0  0  0  0  0  0  0
   -4.1547    5.2179    1.3192 H   0  0  0  0  0  0  0  0  0  0  0  0
   -5.1520    5.5276   -0.0994 H   0  0  0  0  0  0  0  0  0  0  0  0
   -2.9186    6.6153   -1.9394 H   0  0  0  0  0  0  0  0  0  0  0  0
   -4.0953    5.3945   -2.4336 H   0  0  0  0  0  0  0  0  0  0  0  0
   -2.3690    5.0650   -2.5830 H   0  0  0  0  0  0  0  0  0  0  0  0
   -1.5682    6.3307    0.1259 H   0  0  0  0  0  0  0  0  0  0  0  0
   -0.9176    4.8367   -0.5316 H   0  0  0  0  0  0  0  0  0  0  0  0
   -1.6601    4.8436    1.0697 H   0  0  0  0  0  0  0  0  0  0  0  0
  -10.1495   -2.8389   -5.5795 H   0  0  0  0  0  0  0  0  0  0  0  0
   -9.9528   -2.2933   -3.9092 H   0  0  0  0  0  0  0  0  0  0  0  0
   -8.9072   -3.5570   -4.5517 H   0  0  0  0  0  0  0  0  0  0  0  0
   -9.9124   -0.5364   -6.4496 H   0  0  0  0  0  0  0  0  0  0  0  0
   -8.5547    0.4876   -5.9834 H   0  0  0  0  0  0  0  0  0  0  0  0
   -9.7978    0.0667   -4.7972 H   0  0  0  0  0  0  0  0  0  0  0  0
   -8.3696   -2.2421   -7.3166 H   0  0  0  0  0  0  0  0  0  0  0  0
   -7.1285   -2.9635   -6.2901 H   0  0  0  0  0  0  0  0  0  0  0  0
   -6.9593   -1.2948   -6.8274 H   0  0  0  0  0  0  0  0  0  0  0  0
    1.0717   -5.7003    5.3667 H   0  0  0  0  0  0  0  0  0  0  0  0
    0.9559   -5.5248    3.6116 H   0  0  0  0  0  0  0  0  0  0  0  0
   -0.1782   -4.6753    4.6679 H   0  0  0  0  0  0  0  0  0  0  0  0
    1.6390   -3.5792    6.7788 H   0  0  0  0  0  0  0  0  0  0  0  0
    0.5033   -2.5963    5.8546 H   0  0  0  0  0  0  0  0  0  0  0  0
    2.1990   -2.1316    5.9441 H   0  0  0  0  0  0  0  0  0  0  0  0
    3.3311   -4.9969    5.5916 H   0  0  0  0  0  0  0  0  0  0  0  0
    3.9723   -3.5595    4.8159 H   0  0  0  0  0  0  0  0  0  0  0  0
    3.4898   -4.9504    3.8338 H   0  0  0  0  0  0  0  0  0  0  0  0
   -3.5353   -6.3495    3.9035 H   0  0  0  0  0  0  0  0  0  0  0  0
   -4.8408   -5.2833    3.3724 H   0  0  0  0  0  0  0  0  0  0  0  0
   -3.3008   -4.6034    3.8914 H   0  0  0  0  0  0  0  0  0  0  0  0
   -3.6540   -7.6559    1.9205 H   0  0  0  0  0  0  0  0  0  0  0  0
   -3.4450   -6.9875    0.3071 H   0  0  0  0  0  0  0  0  0  0  0  0
   -4.9449   -6.6929    1.1975 H   0  0  0  0  0  0  0  0  0  0  0  0
   -1.4158   -6.5236    2.5147 H   0  0  0  0  0  0  0  0  0  0  0  0
   -1.2688   -4.7705    2.3178 H   0  0  0  0  0  0  0  0  0  0  0  0
   -1.3624   -5.8037    0.8987 H   0  0  0  0  0  0  0  0  0  0  0  0
   -4.2675   -5.2320   -0.6791 H   0  0  0  0  0  0  0  0  0  0  0  0
   -2.9947   -2.9110    2.6985 H   0  0  0  0  0  0  0  0  0  0  0  0
   -6.6834   -3.3194   -4.1013 H   0  0  0  0  0  0  0  0  0  0  0  0
   -7.8868    0.7894   -3.7870 H   0  0  0  0  0  0  0  0  0  0  0  0
   -5.3744    3.7794   -1.4432 H   0  0  0  0  0  0  0  0  0  0  0  0
   -1.5335    2.7158    0.1075 H   0  0  0  0  0  0  0  0  0  0  0  0
   -1.6784    2.5418    3.9840 H   0  0  0  0  0  0  0  0  0  0  0  0
    0.9986    5.0313    1.7706 H   0  0  0  0  0  0  0  0  0  0  0  0
   -0.5249   -2.8758    3.5094 H   0  0  0  0  0  0  0  0  0  0  0  0
    3.6682   -2.8824    2.6948 H   0  0  0  0  0  0  0  0  0  0  0  0
    3.4630    3.3776   -1.8610 H   0  0  0  0  0  0  0  0  0  0  0  0
    5.1249   -0.5138   -1.1884 H   0  0  0  0  0  0  0  0  0  0  0  0
   -1.0167   -2.9397    9.6293 C   0  0  0  0  0  0  0  0  0  0  0  0
   -0.9488   -1.5908    9.2840 C   0  0  0  0  0  0  0  0  0  0  0  0
   -1.4544   -1.1401    8.0357 C   0  0  0  0  0  0  0  0  0  0  0  0
   -1.9378   -2.1523    7.1658 C   0  0  0  0  0  0  0  0  0  0  0  0
   -1.8934   -3.4953    7.5087 C   0  0  0  0  0  0  0  0  0  0  0  0
   -1.4580   -3.9201    8.7572 C   0  0  0  0  0  0  0  0  0  0  0  0
   -1.6228    0.2340    7.6679 C   0  0  0  0  0  0  0  0  0  0  0  0
   -2.6149    0.5102    6.6743 C   0  0  0  0  0  0  0  0  0  0  0  0
   -3.0429   -0.4662    5.7491 C   0  0  0  0  0  0  0  0  0  0  0  0
   -2.5292   -1.8298    5.8606 C   0  0  0  0  0  0  0  0  0  0  0  0
   -0.9519    1.3721    8.2333 C   0  0  0  0  0  0  0  0  0  0  0  0
   -1.5947    2.6341    8.2108 C   0  0  0  0  0  0  0  0  0  0  0  0
   -2.8724    2.8369    7.5230 C   0  0  0  0  0  0  0  0  0  0  0  0
   -3.2181    1.7801    6.5725 C   0  0  0  0  0  0  0  0  0  0  0  0
   -4.1752    2.0401    5.6019 C   0  0  0  0  0  0  0  0  0  0  0  0
   -4.5646    1.0909    4.6643 C   0  0  0  0  0  0  0  0  0  0  0  0
   -3.9659   -0.1608    4.7532 C   0  0  0  0  0  0  0  0  0  0  0  0
    0.3805    1.3635    8.7263 C   0  0  0  0  0  0  0  0  0  0  0  0
    0.9465    2.5362    9.2183 C   0  0  0  0  0  0  0  0  0  0  0  0
    0.2632    3.7438    9.2931 C   0  0  0  0  0  0  0  0  0  0  0  0
   -1.0183    3.7672    8.7718 C   0  0  0  0  0  0  0  0  0  0  0  0
   -0.3543   -0.7718   10.1766 O   0  0  0  0  0  0  0  0  0  0  0  0
    1.1543    0.2610    8.6698 O   0  0  0  0  0  0  0  0  0  0  0  0
    1.0759   -0.6418    9.8272 B   0  0  0  0  0  0  0  0  0  0  0  0
    3.0075   -3.7383    9.3934 C   0  0  0  0  0  0  0  0  0  0  0  0
    2.7693   -2.3665    9.2058 C   0  0  0  0  0  0  0  0  0  0  0  0
    3.7421   -1.5556    8.5600 C   0  0  0  0  0  0  0  0  0  0  0  0
    4.6364   -2.3063    7.7415 C   0  0  0  0  0  0  0  0  0  0  0  0
    4.8228   -3.6703    7.9094 C   0  0  0  0  0  0  0  0  0  0  0  0
    4.0759   -4.4033    8.8261 C   0  0  0  0  0  0  0  0  0  0  0  0
    3.9163   -0.1245    8.6210 C   0  0  0  0  0  0  0  0  0  0  0  0
    4.5395    0.4646    7.4786 C   0  0  0  0  0  0  0  0  0  0  0  0
    4.9644   -0.2922    6.3648 C   0  0  0  0  0  0  0  0  0  0  0  0
    3.7304    0.7254    9.7639 C   0  0  0  0  0  0  0  0  0  0  0  0
    4.4520    1.9581    9.8069 C   0  0  0  0  0  0  0  0  0  0  0  0
    4.8452    2.6487    8.5764 C   0  0  0  0  0  0  0  0  0  0  0  0
    4.7342    1.8582    7.3603 C   0  0  0  0  0  0  0  0  0  0  0  0
    4.9640    2.4403    6.1212 C   0  0  0  0  0  0  0  0  0  0  0  0
    5.0993    1.6828    4.9620 C   0  0  0  0  0  0  0  0  0  0  0  0
    5.2102    0.3073    5.1366 C   0  0  0  0  0  0  0  0  0  0  0  0
    2.9428    0.5069   10.9426 C   0  0  0  0  0  0  0  0  0  0  0  0
    3.3083    1.1335   12.1397 C   0  0  0  0  0  0  0  0  0  0  0  0
    4.2547    2.1435   12.2142 C   0  0  0  0  0  0  0  0  0  0  0  0
    4.7248    2.6193   10.9985 C   0  0  0  0  0  0  0  0  0  0  0  0
    1.8181   -0.1836   11.0129 O   0  0  0  0  0  0  0  0  0  0  0  0
    1.5559   -1.9870    9.5472 O   0  0  0  0  0  0  0  0  0  0  0  0
    5.2898   -1.6993    6.5796 C   0  0  0  0  0  0  0  0  0  0  0  0
    5.2577    3.8094    8.5802 O   0  0  0  0  0  0  0  0  0  0  0  0
    6.0355   -2.3258    5.8317 O   0  0  0  0  0  0  0  0  0  0  0  0
   -2.6575   -2.6772    4.9794 O   0  0  0  0  0  0  0  0  0  0  0  0
   -3.5603    3.8450    7.6704 O   0  0  0  0  0  0  0  0  0  0  0  0
   -1.4257   -5.4031    9.0862 C   0  0  0  0  0  0  0  0  0  0  0  0
   -0.9905   -5.6754   10.5284 C   0  0  0  0  0  0  0  0  0  0  0  0
   -0.4240   -6.0770    8.1381 C   0  0  0  0  0  0  0  0  0  0  0  0
   -2.8223   -6.0069    8.8833 C   0  0  0  0  0  0  0  0  0  0  0  0
    0.9397    4.9664    9.8878 C   0  0  0  0  0  0  0  0  0  0  0  0
   -0.0162    6.1594    9.9935 C   0  0  0  0  0  0  0  0  0  0  0  0
    1.4464    4.6311   11.2964 C   0  0  0  0  0  0  0  0  0  0  0  0
    2.1219    5.3692    8.9969 C   0  0  0  0  0  0  0  0  0  0  0  0
   -5.5606    1.4664    3.5821 C   0  0  0  0  0  0  0  0  0  0  0  0
   -6.1121    0.2418    2.8502 C   0  0  0  0  0  0  0  0  0  0  0  0
   -4.8113    2.3461    2.5722 C   0  0  0  0  0  0  0  0  0  0  0  0
   -6.7453    2.2412    4.1786 C   0  0  0  0  0  0  0  0  0  0  0  0
    4.3998   -5.8609    9.1027 C   0  0  0  0  0  0  0  0  0  0  0  0
    4.2024   -6.6853    7.8243 C   0  0  0  0  0  0  0  0  0  0  0  0
    3.5179   -6.4544   10.2051 C   0  0  0  0  0  0  0  0  0  0  0  0
    5.8647   -5.9537    9.5529 C   0  0  0  0  0  0  0  0  0  0  0  0
    4.6667    2.7131   13.5601 C   0  0  0  0  0  0  0  0  0  0  0  0
    5.2630    1.5737   14.3990 C   0  0  0  0  0  0  0  0  0  0  0  0
    5.7194    3.8157   13.4202 C   0  0  0  0  0  0  0  0  0  0  0  0
    3.4461    3.2977   14.2829 C   0  0  0  0  0  0  0  0  0  0  0  0
    5.1612    2.3633    3.6069 C   0  0  0  0  0  0  0  0  0  0  0  0
    6.3470    3.3369    3.5632 C   0  0  0  0  0  0  0  0  0  0  0  0
    5.3089    1.3611    2.4618 C   0  0  0  0  0  0  0  0  0  0  0  0
    3.8468    3.1323    3.4043 C   0  0  0  0  0  0  0  0  0  0  0  0
    5.2724    1.8838    1.5074 H   0  0  0  0  0  0  0  0  0  0  0  0
    4.4974    0.6386    2.4757 H   0  0  0  0  0  0  0  0  0  0  0  0
    6.2545    0.8269    2.5196 H   0  0  0  0  0  0  0  0  0  0  0  0
    6.3966    3.8152    2.5869 H   0  0  0  0  0  0  0  0  0  0  0  0
    7.2790    2.8016    3.7356 H   0  0  0  0  0  0  0  0  0  0  0  0
    6.2524    4.1115    4.3194 H   0  0  0  0  0  0  0  0  0  0  0  0
    3.8376    3.6176    2.4302 H   0  0  0  0  0  0  0  0  0  0  0  0
    3.7141    3.8925    4.1702 H   0  0  0  0  0  0  0  0  0  0  0  0
    2.9995    2.4511    3.4505 H   0  0  0  0  0  0  0  0  0  0  0  0
    6.0223    4.1623   14.4074 H   0  0  0  0  0  0  0  0  0  0  0  0
    5.3203    4.6644   12.8708 H   0  0  0  0  0  0  0  0  0  0  0  0
    6.6009    3.4454   12.9024 H   0  0  0  0  0  0  0  0  0  0  0  0
    3.7394    3.6944   15.2541 H   0  0  0  0  0  0  0  0  0  0  0  0
    2.6826    2.5411   14.4376 H   0  0  0  0  0  0  0  0  0  0  0  0
    3.0116    4.1022   13.6955 H   0  0  0  0  0  0  0  0  0  0  0  0
    5.5785    1.9441   15.3735 H   0  0  0  0  0  0  0  0  0  0  0  0
    6.1274    1.1485   13.8930 H   0  0  0  0  0  0  0  0  0  0  0  0
    4.5343    0.7820   14.5495 H   0  0  0  0  0  0  0  0  0  0  0  0
    1.9043    5.5117   11.7460 H   0  0  0  0  0  0  0  0  0  0  0  0
    2.1869    3.8376   11.2669 H   0  0  0  0  0  0  0  0  0  0  0  0
    0.6209    4.3061   11.9271 H   0  0  0  0  0  0  0  0  0  0  0  0
    0.4937    6.9945   10.4721 H   0  0  0  0  0  0  0  0  0  0  0  0
   -0.8898    5.9060   10.5898 H   0  0  0  0  0  0  0  0  0  0  0  0
   -0.3437    6.4860    9.0097 H   0  0  0  0  0  0  0  0  0  0  0  0
    2.5855    6.2787    9.3757 H   0  0  0  0  0  0  0  0  0  0  0  0
    1.7832    5.5507    7.9795 H   0  0  0  0  0  0  0  0  0  0  0  0
    2.8798    4.5931    8.9682 H   0  0  0  0  0  0  0  0  0  0  0  0
   -7.4787    2.4422    3.3998 H   0  0  0  0  0  0  0  0  0  0  0  0
   -6.4382    3.1942    4.5998 H   0  0  0  0  0  0  0  0  0  0  0  0
   -7.2244    1.6567    4.9625 H   0  0  0  0  0  0  0  0  0  0  0  0
   -5.4613    2.6146    1.7417 H   0  0  0  0  0  0  0  0  0  0  0  0
   -3.9573    1.7998    2.1800 H   0  0  0  0  0  0  0  0  0  0  0  0
   -4.4509    3.2580    3.0446 H   0  0  0  0  0  0  0  0  0  0  0  0
   -6.8608    0.5549    2.1240 H   0  0  0  0  0  0  0  0  0  0  0  0
   -6.5765   -0.4540    3.5472 H   0  0  0  0  0  0  0  0  0  0  0  0
   -5.3165   -0.2613    2.3132 H   0  0  0  0  0  0  0  0  0  0  0  0
    4.4352   -7.7328    8.0111 H   0  0  0  0  0  0  0  0  0  0  0  0
    4.8471   -6.3271    7.0268 H   0  0  0  0  0  0  0  0  0  0  0  0
    3.1693   -6.6172    7.4896 H   0  0  0  0  0  0  0  0  0  0  0  0
    3.8402   -7.4716   10.4243 H   0  0  0  0  0  0  0  0  0  0  0  0
    2.4770   -6.4923    9.8939 H   0  0  0  0  0  0  0  0  0  0  0  0
    3.5928   -5.8678   11.1178 H   0  0  0  0  0  0  0  0  0  0  0  0
    6.1337   -6.9892    9.7571 H   0  0  0  0  0  0  0  0  0  0  0  0
    6.0155   -5.3707   10.4593 H   0  0  0  0  0  0  0  0  0  0  0  0
    6.5315   -5.5695    8.7865 H   0  0  0  0  0  0  0  0  0  0  0  0
   -1.0001   -6.7484   10.7185 H   0  0  0  0  0  0  0  0  0  0  0  0
   -1.6662   -5.1979   11.2343 H   0  0  0  0  0  0  0  0  0  0  0  0
    0.0174   -5.3094   10.7055 H   0  0  0  0  0  0  0  0  0  0  0  0
   -2.8107   -7.0709    9.1160 H   0  0  0  0  0  0  0  0  0  0  0  0
   -3.1583   -5.8856    7.8579 H   0  0  0  0  0  0  0  0  0  0  0  0
   -3.5410   -5.5169    9.5373 H   0  0  0  0  0  0  0  0  0  0  0  0
   -0.3295   -7.1371    8.3720 H   0  0  0  0  0  0  0  0  0  0  0  0
    0.5521   -5.6060    8.2366 H   0  0  0  0  0  0  0  0  0  0  0  0
   -0.7439   -5.9777    7.1052 H   0  0  0  0  0  0  0  0  0  0  0  0
   -2.2353   -4.1968    6.7618 H   0  0  0  0  0  0  0  0  0  0  0  0
   -0.6362   -3.1779   10.6084 H   0  0  0  0  0  0  0  0  0  0  0  0
   -4.2004   -0.9430    4.0507 H   0  0  0  0  0  0  0  0  0  0  0  0
   -4.6004    3.0333    5.6073 H   0  0  0  0  0  0  0  0  0  0  0  0
   -1.6149    4.6650    8.7420 H   0  0  0  0  0  0  0  0  0  0  0  0
    1.9683    2.4778    9.5531 H   0  0  0  0  0  0  0  0  0  0  0  0
    2.7450    0.8270   13.0075 H   0  0  0  0  0  0  0  0  0  0  0  0
    5.3092    3.5216   10.9176 H   0  0  0  0  0  0  0  0  0  0  0  0
    2.2618   -4.2513    9.9782 H   0  0  0  0  0  0  0  0  0  0  0  0
    5.5591   -4.1358    7.2720 H   0  0  0  0  0  0  0  0  0  0  0  0
    5.0431    3.5176    6.1017 H   0  0  0  0  0  0  0  0  0  0  0  0
    5.4917   -0.3461    4.3257 H   0  0  0  0  0  0  0  0  0  0  0  0
  1  2  4  0  0  0  0
  2  3  4  0  0  0  0
  3  4  4  0  0  0  0
  4  5  4  0  0  0  0
  1  6  4  0  0  0  0
  5  6  4  0  0  0  0
  3  7  4  0  0  0  0
  7  8  4  0  0  0  0
  8  9  4  0  0  0  0
  4 10  1  0  0  0  0
  9 10  1  0  0  0  0
  7 11  4  0  0  0  0
 11 12  4  0  0  0  0
 12 13  1  0  0  0  0
  8 14  4  0  0  0  0
 13 14  1  0  0  0  0
 14 15  4  0  0  0  0
 15 16  4  0  0  0  0
  9 17  4  0  0  0  0
 16 17  4  0  0  0  0
 11 18  4  0  0  0  0
 18 19  4  0  0  0  0
 19 20  4  0  0  0  0
 12 21  4  0  0  0  0
 20 21  4  0  0  0  0
  2 22  1  0  0  0  0
 18 23  1  0  0  0  0
 22 24  1  0  0  0  0
 23 24  1  0  0  0  0
 25 26  4  0  0  0  0
 26 27  4  0  0  0  0
 27 28  4  0  0  0  0
 28 29  4  0  0  0  0
 25 30  4  0  0  0  0
 29 30  4  0  0  0  0
 27 31  4  0  0  0  0
 31 32  4  0  0  0  0
 32 33  4  0  0  0  0
 31 34  4  0  0  0  0
 34 35  4  0  0  0  0
 35 36  1  0  0  0  0
 32 37  4  0  0  0  0
 36 37  1  0  0  0  0
 37 38  4  0  0  0  0
 38 39  4  0  0  0  0
 33 40  4  0  0  0  0
 39 40  4  0  0  0  0
 34 41  4  0  0  0  0
 41 42  4  0  0  0  0
 42 43  4  0  0  0  0
 35 44  4  0  0  0  0
 43 44  4  0  0  0  0
 24 45  1  0  0  0  0
 41 45  1  0  0  0  0
 24 46  1  0  0  0  0
 26 46  1  0  0  0  0
 28 47  1  0  0  0  0
 33 47  1  0  0  0  0
 36 48  2  0  0  0  0
 47 49  2  0  0  0  0
 10 50  2  0  0  0  0
 13 51  2  0  0  0  0
  6 52  1  0  0  0  0
 52 53  1  0  0  0  0
 52 54  1  0  0  0  0
 52 55  1  0  0  0  0
 20 56  1  0  0  0  0
 56 57  1  0  0  0  0
 56 58  1  0  0  0  0
 56 59  1  0  0  0  0
 16 60  1  0  0  0  0
 60 61  1  0  0  0  0
 60 62  1  0  0  0  0
 60 63  1  0  0  0  0
 30 64  1  0  0  0  0
 64 65  1  0  0  0  0
 64 66  1  0  0  0  0
 64 67  1  0  0  0  0
 43 68  1  0  0  0  0
 68 69  1  0  0  0  0
 68 70  1  0  0  0  0
 68 71  1  0  0  0  0
 39 72  1  0  0  0  0
 72 73  1  0  0  0  0
 72 74  1  0  0  0  0
 72 75  1  0  0  0  0
 74 76  1  0  0  0  0
 74 77  1  0  0  0  0
 74 78  1  0  0  0  0
 73 79  1  0  0  0  0
 73 80  1  0  0  0  0
 73 81  1  0  0  0  0
 75 82  1  0  0  0  0
 75 83  1  0  0  0  0
 75 84  1  0  0  0  0
 70 85  1  0  0  0  0
 70 86  1  0  0  0  0
 70 87  1  0  0  0  0
 71 88  1  0  0  0  0
 71 89  1  0  0  0  0
 71 90  1  0  0  0  0
 69 91  1  0  0  0  0
 69 92  1  0  0  0  0
 69 93  1  0  0  0  0
 58 94  1  0  0  0  0
 58 95  1  0  0  0  0
 58 96  1  0  0  0  0
 57 97  1  0  0  0  0
 57 98  1  0  0  0  0
 57 99  1  0  0  0  0
 59100  1  0  0  0  0
 59101  1  0  0  0  0
 59102  1  0  0  0  0
 63103  1  0  0  0  0
 63104  1  0  0  0  0
 63105  1  0  0  0  0
 62106  1  0  0  0  0
 62107  1  0  0  0  0
 62108  1  0  0  0  0
 61109  1  0  0  0  0
 61110  1  0  0  0  0
 61111  1  0  0  0  0
 65112  1  0  0  0  0
 65113  1  0  0  0  0
 65114  1  0  0  0  0
 66115  1  0  0  0  0
 66116  1  0  0  0  0
 66117  1  0  0  0  0
 67118  1  0  0  0  0
 67119  1  0  0  0  0
 67120  1  0  0  0  0
 53121  1  0  0  0  0
 53122  1  0  0  0  0
 53123  1  0  0  0  0
 55124  1  0  0  0  0
 55125  1  0  0  0  0
 55126  1  0  0  0  0
 54127  1  0  0  0  0
 54128  1  0  0  0  0
 54129  1  0  0  0  0
  5130  1  0  0  0  0
  1131  1  0  0  0  0
 17132  1  0  0  0  0
 15133  1  0  0  0  0
 21134  1  0  0  0  0
 19135  1  0  0  0  0
 42136  1  0  0  0  0
 44137  1  0  0  0  0
 25138  1  0  0  0  0
 29139  1  0  0  0  0
 38140  1  0  0  0  0
 40141  1  0  0  0  0
142143  4  0  0  0  0
143144  4  0  0  0  0
144145  4  0  0  0  0
145146  4  0  0  0  0
142147  4  0  0  0  0
146147  4  0  0  0  0
144148  4  0  0  0  0
148149  4  0  0  0  0
149150  4  0  0  0  0
145151  1  0  0  0  0
150151  1  0  0  0  0
148152  1  0  0  0  0
152153  4  0  0  0  0
153154  1  0  0  0  0
149155  4  0  0  0  0
154155  1  0  0  0  0
155156  4  0  0  0  0
156157  4  0  0  0  0
150158  4  0  0  0  0
157158  4  0  0  0  0
152159  4  0  0  0  0
159160  4  0  0  0  0
160161  4  0  0  0  0
153162  4  0  0  0  0
161162  4  0  0  0  0
143163  1  0  0  0  0
159164  1  0  0  0  0
163165  1  0  0  0  0
164165  1  0  0  0  0
166167  4  0  0  0  0
167168  4  0  0  0  0
168169  4  0  0  0  0
169170  4  0  0  0  0
166171  4  0  0  0  0
170171  4  0  0  0  0
168172  1  0  0  0  0
172173  4  0  0  0  0
173174  4  0  0  0  0
172175  4  0  0  0  0
175176  4  0  0  0  0
176177  1  0  0  0  0
173178  4  0  0  0  0
177178  1  0  0  0  0
178179  4  0  0  0  0
179180  4  0  0  0  0
174181  4  0  0  0  0
180181  4  0  0  0  0
175182  4  0  0  0  0
182183  4  0  0  0  0
183184  4  0  0  0  0
176185  4  0  0  0  0
184185  4  0  0  0  0
165186  1  0  0  0  0
182186  1  0  0  0  0
165187  1  0  0  0  0
167187  1  0  0  0  0
169188  1  0  0  0  0
174188  1  0  0  0  0
177189  2  0  0  0  0
188190  2  0  0  0  0
151191  2  0  0  0  0
154192  2  0  0  0  0
147193  1  0  0  0  0
193194  1  0  0  0  0
193195  1  0  0  0  0
193196  1  0  0  0  0
161197  1  0  0  0  0
197198  1  0  0  0  0
197199  1  0  0  0  0
197200  1  0  0  0  0
157201  1  0  0  0  0
201202  1  0  0  0  0
201203  1  0  0  0  0
201204  1  0  0  0  0
171205  1  0  0  0  0
205206  1  0  0  0  0
205207  1  0  0  0  0
205208  1  0  0  0  0
184209  1  0  0  0  0
209210  1  0  0  0  0
209211  1  0  0  0  0
209212  1  0  0  0  0
180213  1  0  0  0  0
213214  1  0  0  0  0
213215  1  0  0  0  0
213216  1  0  0  0  0
215217  1  0  0  0  0
215218  1  0  0  0  0
215219  1  0  0  0  0
214220  1  0  0  0  0
214221  1  0  0  0  0
214222  1  0  0  0  0
216223  1  0  0  0  0
216224  1  0  0  0  0
216225  1  0  0  0  0
211226  1  0  0  0  0
211227  1  0  0  0  0
211228  1  0  0  0  0
212229  1  0  0  0  0
212230  1  0  0  0  0
212231  1  0  0  0  0
210232  1  0  0  0  0
210233  1  0  0  0  0
210234  1  0  0  0  0
199235  1  0  0  0  0
199236  1  0  0  0  0
199237  1  0  0  0  0
198238  1  0  0  0  0
198239  1  0  0  0  0
198240  1  0  0  0  0
200241  1  0  0  0  0
200242  1  0  0  0  0
200243  1  0  0  0  0
204244  1  0  0  0  0
204245  1  0  0  0  0
204246  1  0  0  0  0
203247  1  0  0  0  0
203248  1  0  0  0  0
203249  1  0  0  0  0
202250  1  0  0  0  0
202251  1  0  0  0  0
202252  1  0  0  0  0
206253  1  0  0  0  0
206254  1  0  0  0  0
206255  1  0  0  0  0
207256  1  0  0  0  0
207257  1  0  0  0  0
207258  1  0  0  0  0
208259  1  0  0  0  0
208260  1  0  0  0  0
208261  1  0  0  0  0
194262  1  0  0  0  0
194263  1  0  0  0  0
194264  1  0  0  0  0
196265  1  0  0  0  0
196266  1  0  0  0  0
196267  1  0  0  0  0
195268  1  0  0  0  0
195269  1  0  0  0  0
195270  1  0  0  0  0
146271  1  0  0  0  0
142272  1  0  0  0  0
158273  1  0  0  0  0
156274  1  0  0  0  0
162275  1  0  0  0  0
160276  1  0  0  0  0
183277  1  0  0  0  0
185278  1  0  0  0  0
166279  1  0  0  0  0
170280  1  0  0  0  0
179281  1  0  0  0  0
181282  1  0  0  0  0
M  CHG  1  24  -1
M  CHG  1 165  -1
M  END
