 energy: -208.998883906986 gnorm: 0.000059130371 xtb: 6.7.1 (edcfbbe)
          03112514063D

141152  0     0  0            999 V2000
   -2.1509   -3.0652    1.6155 C   0  0  0  0  0  0  0  0  0  0  0  0
   -2.2228   -1.7372    1.1786 C   0  0  0  0  0  0  0  0  0  0  0  0
   -2.9172   -1.4003   -0.0159 C   0  0  0  0  0  0  0  0  0  0  0  0
   -3.3826   -2.5107   -0.7747 C   0  0  0  0  0  0  0  0  0  0  0  0
   -3.2123   -3.8134   -0.3569 C   0  0  0  0  0  0  0  0  0  0  0  0
   -2.6276   -4.1262    0.8735 C   0  0  0  0  0  0  0  0  0  0  0  0
   -3.2881   -0.0706   -0.3890 C   0  0  0  0  0  0  0  0  0  0  0  0
   -4.4174    0.0269   -1.2884 C   0  0  0  0  0  0  0  0  0  0  0  0
   -4.7777   -1.0282   -2.1466 C   0  0  0  0  0  0  0  0  0  0  0  0
   -4.1013   -2.3254   -2.0450 C   0  0  0  0  0  0  0  0  0  0  0  0
   -2.7366    1.1770    0.0693 C   0  0  0  0  0  0  0  0  0  0  0  0
   -3.5783    2.3256    0.0638 C   0  0  0  0  0  0  0  0  0  0  0  0
   -4.9618    2.2879   -0.4378 C   0  0  0  0  0  0  0  0  0  0  0  0
   -5.2285    1.1706   -1.3484 C   0  0  0  0  0  0  0  0  0  0  0  0
   -6.3030    1.2640   -2.2253 C   0  0  0  0  0  0  0  0  0  0  0  0
   -6.6021    0.2515   -3.1267 C   0  0  0  0  0  0  0  0  0  0  0  0
   -5.8143   -0.8938   -3.0588 C   0  0  0  0  0  0  0  0  0  0  0  0
   -1.3777    1.4299    0.4240 C   0  0  0  0  0  0  0  0  0  0  0  0
   -0.9557    2.7319    0.7374 C   0  0  0  0  0  0  0  0  0  0  0  0
   -1.8038    3.8198    0.7736 C   0  0  0  0  0  0  0  0  0  0  0  0
   -3.1370    3.5747    0.4460 C   0  0  0  0  0  0  0  0  0  0  0  0
   -1.6047   -0.8242    1.9276 O   0  0  0  0  0  0  0  0  0  0  0  0
   -0.4125    0.5084    0.3720 O   0  0  0  0  0  0  0  0  0  0  0  0
   -0.2570   -0.4974    1.4246 B   0  0  0  0  0  0  0  0  0  0  0  0
    1.7761   -3.4072    1.3920 C   0  0  0  0  0  0  0  0  0  0  0  0
    1.6159   -2.0592    1.0386 C   0  0  0  0  0  0  0  0  0  0  0  0
    2.7529   -1.2649    0.7153 C   0  0  0  0  0  0  0  0  0  0  0  0
    3.9354   -2.0252    0.4803 C   0  0  0  0  0  0  0  0  0  0  0  0
    4.0585   -3.3519    0.8559 C   0  0  0  0  0  0  0  0  0  0  0  0
    2.9915   -4.0628    1.3963 C   0  0  0  0  0  0  0  0  0  0  0  0
    2.8383    0.1705    0.5627 C   0  0  0  0  0  0  0  0  0  0  0  0
    3.8293    0.6457   -0.3783 C   0  0  0  0  0  0  0  0  0  0  0  0
    4.8209   -0.1883   -0.9172 C   0  0  0  0  0  0  0  0  0  0  0  0
    2.2473    1.1615    1.3934 C   0  0  0  0  0  0  0  0  0  0  0  0
    2.6708    2.5207    1.2656 C   0  0  0  0  0  0  0  0  0  0  0  0
    3.1707    3.0120   -0.0272 C   0  0  0  0  0  0  0  0  0  0  0  0
    3.8649    1.9877   -0.8062 C   0  0  0  0  0  0  0  0  0  0  0  0
    4.6835    2.3883   -1.8526 C   0  0  0  0  0  0  0  0  0  0  0  0
    5.5746    1.5173   -2.4730 C   0  0  0  0  0  0  0  0  0  0  0  0
    5.6692    0.2425   -1.9309 C   0  0  0  0  0  0  0  0  0  0  0  0
    1.3835    0.9463    2.5172 C   0  0  0  0  0  0  0  0  0  0  0  0
    1.4274    1.8322    3.6022 C   0  0  0  0  0  0  0  0  0  0  0  0
    2.0942    3.0419    3.5602 C   0  0  0  0  0  0  0  0  0  0  0  0
    2.6139    3.4142    2.3139 C   0  0  0  0  0  0  0  0  0  0  0  0
    0.5150   -0.0351    2.5994 O   0  0  0  0  0  0  0  0  0  0  0  0
    0.3477   -1.6918    0.9045 O   0  0  0  0  0  0  0  0  0  0  0  0
    5.0677   -1.4901   -0.2887 C   0  0  0  0  0  0  0  0  0  0  0  0
    3.0704    4.1805   -0.3654 O   0  0  0  0  0  0  0  0  0  0  0  0
    6.1169   -2.0958   -0.4389 O   0  0  0  0  0  0  0  0  0  0  0  0
   -4.2064   -3.2023   -2.8862 O   0  0  0  0  0  0  0  0  0  0  0  0
   -5.7857    3.1527   -0.1910 O   0  0  0  0  0  0  0  0  0  0  0  0
   -2.5324   -5.5747    1.3094 C   0  0  0  0  0  0  0  0  0  0  0  0
   -1.8007   -5.7396    2.6431 C   0  0  0  0  0  0  0  0  0  0  0  0
   -1.7817   -6.3690    0.2303 C   0  0  0  0  0  0  0  0  0  0  0  0
   -3.9560   -6.1295    1.4646 C   0  0  0  0  0  0  0  0  0  0  0  0
   -1.3724    5.2324    1.1101 C   0  0  0  0  0  0  0  0  0  0  0  0
   -1.6794    6.1423   -0.0882 C   0  0  0  0  0  0  0  0  0  0  0  0
   -2.1649    5.7031    2.3389 C   0  0  0  0  0  0  0  0  0  0  0  0
    0.1194    5.3330    1.4223 C   0  0  0  0  0  0  0  0  0  0  0  0
   -7.7321    0.3357   -4.1345 C   0  0  0  0  0  0  0  0  0  0  0  0
   -7.1458    0.1816   -5.5451 C   0  0  0  0  0  0  0  0  0  0  0  0
   -8.4804    1.6686   -4.0611 C   0  0  0  0  0  0  0  0  0  0  0  0
   -8.7283   -0.7995   -3.8583 C   0  0  0  0  0  0  0  0  0  0  0  0
    3.1121   -5.4835    1.9124 C   0  0  0  0  0  0  0  0  0  0  0  0
    2.2412   -6.4100    1.0537 C   0  0  0  0  0  0  0  0  0  0  0  0
    2.6284   -5.5171    3.3692 C   0  0  0  0  0  0  0  0  0  0  0  0
    4.5548   -5.9929    1.8704 C   0  0  0  0  0  0  0  0  0  0  0  0
    2.1909    3.9134    4.7969 C   0  0  0  0  0  0  0  0  0  0  0  0
    2.9449    3.1153    5.8716 C   0  0  0  0  0  0  0  0  0  0  0  0
    2.9519    5.2148    4.5320 C   0  0  0  0  0  0  0  0  0  0  0  0
    0.7883    4.2661    5.3112 C   0  0  0  0  0  0  0  0  0  0  0  0
    6.4309    2.0008   -3.6270 C   0  0  0  0  0  0  0  0  0  0  0  0
    7.3359    3.1374   -3.1305 C   0  0  0  0  0  0  0  0  0  0  0  0
    7.3125    0.8897   -4.2017 C   0  0  0  0  0  0  0  0  0  0  0  0
    5.5099    2.5179   -4.7411 C   0  0  0  0  0  0  0  0  0  0  0  0
    7.8707    1.2739   -5.0527 H   0  0  0  0  0  0  0  0  0  0  0  0
    6.7099    0.0515   -4.5438 H   0  0  0  0  0  0  0  0  0  0  0  0
    8.0286    0.5352   -3.4644 H   0  0  0  0  0  0  0  0  0  0  0  0
    7.9727    3.4854   -3.9406 H   0  0  0  0  0  0  0  0  0  0  0  0
    7.9703    2.7870   -2.3190 H   0  0  0  0  0  0  0  0  0  0  0  0
    6.7521    3.9795   -2.7694 H   0  0  0  0  0  0  0  0  0  0  0  0
    6.1042    2.8674   -5.5823 H   0  0  0  0  0  0  0  0  0  0  0  0
    4.8919    3.3416   -4.3953 H   0  0  0  0  0  0  0  0  0  0  0  0
    4.8553    1.7215   -5.0889 H   0  0  0  0  0  0  0  0  0  0  0  0
    3.0283    5.7835    5.4562 H   0  0  0  0  0  0  0  0  0  0  0  0
    2.4343    5.8307    3.8010 H   0  0  0  0  0  0  0  0  0  0  0  0
    3.9594    5.0124    4.1767 H   0  0  0  0  0  0  0  0  0  0  0  0
    0.8684    4.8599    6.2190 H   0  0  0  0  0  0  0  0  0  0  0  0
    0.2109    3.3745    5.5376 H   0  0  0  0  0  0  0  0  0  0  0  0
    0.2459    4.8481    4.5700 H   0  0  0  0  0  0  0  0  0  0  0  0
    3.0483    3.7120    6.7750 H   0  0  0  0  0  0  0  0  0  0  0  0
    3.9390    2.8506    5.5174 H   0  0  0  0  0  0  0  0  0  0  0  0
    2.4165    2.1999    6.1227 H   0  0  0  0  0  0  0  0  0  0  0  0
   -1.8549    6.7075    2.6192 H   0  0  0  0  0  0  0  0  0  0  0  0
   -1.9858    5.0364    3.1801 H   0  0  0  0  0  0  0  0  0  0  0  0
   -3.2326    5.7196    2.1403 H   0  0  0  0  0  0  0  0  0  0  0  0
   -1.3683    7.1607    0.1333 H   0  0  0  0  0  0  0  0  0  0  0  0
   -2.7400    6.1528   -0.3223 H   0  0  0  0  0  0  0  0  0  0  0  0
   -1.1359    5.7997   -0.9658 H   0  0  0  0  0  0  0  0  0  0  0  0
    0.3685    6.3619    1.6749 H   0  0  0  0  0  0  0  0  0  0  0  0
    0.7261    5.0430    0.5682 H   0  0  0  0  0  0  0  0  0  0  0  0
    0.3756    4.7005    2.2676 H   0  0  0  0  0  0  0  0  0  0  0  0
   -9.5558   -0.7464   -4.5621 H   0  0  0  0  0  0  0  0  0  0  0  0
   -9.1272   -0.7137   -2.8497 H   0  0  0  0  0  0  0  0  0  0  0  0
   -8.2577   -1.7734   -3.9586 H   0  0  0  0  0  0  0  0  0  0  0  0
   -9.2697    1.6822   -4.8097 H   0  0  0  0  0  0  0  0  0  0  0  0
   -7.8130    2.5034   -4.2609 H   0  0  0  0  0  0  0  0  0  0  0  0
   -8.9405    1.8065   -3.0856 H   0  0  0  0  0  0  0  0  0  0  0  0
   -7.9394    0.2444   -6.2862 H   0  0  0  0  0  0  0  0  0  0  0  0
   -6.6433   -0.7741   -5.6636 H   0  0  0  0  0  0  0  0  0  0  0  0
   -6.4261    0.9733   -5.7425 H   0  0  0  0  0  0  0  0  0  0  0  0
    2.3469   -7.4386    1.3912 H   0  0  0  0  0  0  0  0  0  0  0  0
    2.5457   -6.3553    0.0109 H   0  0  0  0  0  0  0  0  0  0  0  0
    1.1930   -6.1360    1.1197 H   0  0  0  0  0  0  0  0  0  0  0  0
    2.6907   -6.5303    3.7597 H   0  0  0  0  0  0  0  0  0  0  0  0
    1.5990   -5.1809    3.4537 H   0  0  0  0  0  0  0  0  0  0  0  0
    3.2487   -4.8705    3.9859 H   0  0  0  0  0  0  0  0  0  0  0  0
    4.5997   -6.9906    2.3021 H   0  0  0  0  0  0  0  0  0  0  0  0
    5.2136   -5.3460    2.4444 H   0  0  0  0  0  0  0  0  0  0  0  0
    4.9196   -6.0535    0.8483 H   0  0  0  0  0  0  0  0  0  0  0  0
   -1.7578   -6.7941    2.9077 H   0  0  0  0  0  0  0  0  0  0  0  0
   -2.3183   -5.2127    3.4410 H   0  0  0  0  0  0  0  0  0  0  0  0
   -0.7812   -5.3680    2.5787 H   0  0  0  0  0  0  0  0  0  0  0  0
   -3.9167   -7.1758    1.7593 H   0  0  0  0  0  0  0  0  0  0  0  0
   -4.5110   -6.0561    0.5336 H   0  0  0  0  0  0  0  0  0  0  0  0
   -4.4958   -5.5745    2.2289 H   0  0  0  0  0  0  0  0  0  0  0  0
   -1.6005   -7.3856    0.5724 H   0  0  0  0  0  0  0  0  0  0  0  0
   -0.8254   -5.8993    0.0102 H   0  0  0  0  0  0  0  0  0  0  0  0
   -2.3515   -6.4193   -0.6927 H   0  0  0  0  0  0  0  0  0  0  0  0
   -3.5743   -4.5859   -1.0182 H   0  0  0  0  0  0  0  0  0  0  0  0
   -1.6485   -3.2071    2.5584 H   0  0  0  0  0  0  0  0  0  0  0  0
   -5.9978   -1.7408   -3.7033 H   0  0  0  0  0  0  0  0  0  0  0  0
   -6.8854    2.1701   -2.1718 H   0  0  0  0  0  0  0  0  0  0  0  0
   -3.8692    4.3680    0.4386 H   0  0  0  0  0  0  0  0  0  0  0  0
    0.0953    2.8428    0.9467 H   0  0  0  0  0  0  0  0  0  0  0  0
    0.8537    1.5341    4.4656 H   0  0  0  0  0  0  0  0  0  0  0  0
    2.9968    4.4050    2.1323 H   0  0  0  0  0  0  0  0  0  0  0  0
    0.8629   -3.9149    1.6597 H   0  0  0  0  0  0  0  0  0  0  0  0
    5.0192   -3.8088    0.6801 H   0  0  0  0  0  0  0  0  0  0  0  0
    4.6250    3.4287   -2.1364 H   0  0  0  0  0  0  0  0  0  0  0  0
    6.4118   -0.4644   -2.2653 H   0  0  0  0  0  0  0  0  0  0  0  0
  1  2  2  0  0  0  0
  1131  1  0  0  0  0
  2  3  1  0  0  0  0
  2 22  1  0  0  0  0
  3  4  2  0  0  0  0
  4  5  1  0  0  0  0
  5  6  2  0  0  0  0
  5130  1  0  0  0  0
  6 52  1  0  0  0  0
  6  1  1  0  0  0  0
  7  3  1  0  0  0  0
  7  8  1  0  0  0  0
  7 11  1  0  0  0  0
  8  9  2  0  0  0  0
  9 10  1  0  0  0  0
 10  4  1  0  0  0  0
 10 50  2  0  0  0  0
 11 12  2  0  0  0  0
 11 18  1  0  0  0  0
 13 14  1  0  0  0  0
 13 12  1  0  0  0  0
 13 51  2  0  0  0  0
 14  8  1  0  0  0  0
 14 15  2  0  0  0  0
 15 16  1  0  0  0  0
 15133  1  0  0  0  0
 16 60  1  0  0  0  0
 16 17  2  0  0  0  0
 17  9  1  0  0  0  0
 17132  1  0  0  0  0
 18 19  2  0  0  0  0
 18 23  1  0  0  0  0
 19 20  1  0  0  0  0
 19135  1  0  0  0  0
 20 56  1  0  0  0  0
 20 21  2  0  0  0  0
 21 12  1  0  0  0  0
 21134  1  0  0  0  0
 24 23  1  0  0  0  0
 24 22  1  0  0  0  0
 25 26  2  0  0  0  0
 25138  1  0  0  0  0
 26 27  1  0  0  0  0
 26 46  1  0  0  0  0
 27 28  2  0  0  0  0
 28 29  1  0  0  0  0
 28 47  1  0  0  0  0
 29 30  2  0  0  0  0
 29139  1  0  0  0  0
 30 64  1  0  0  0  0
 30 25  1  0  0  0  0
 31 27  1  0  0  0  0
 31 32  1  0  0  0  0
 32 33  2  0  0  0  0
 34 35  2  0  0  0  0
 34 41  1  0  0  0  0
 34 31  1  0  0  0  0
 36 37  1  0  0  0  0
 36 35  1  0  0  0  0
 36 48  2  0  0  0  0
 37 32  1  0  0  0  0
 37 38  2  0  0  0  0
 38 39  1  0  0  0  0
 38140  1  0  0  0  0
 39 72  1  0  0  0  0
 39 40  2  0  0  0  0
 40 33  1  0  0  0  0
 40141  1  0  0  0  0
 41 42  2  0  0  0  0
 41 45  1  0  0  0  0
 42 43  1  0  0  0  0
 42136  1  0  0  0  0
 43 68  1  0  0  0  0
 43 44  2  0  0  0  0
 44 35  1  0  0  0  0
 44137  1  0  0  0  0
 45 24  1  0  0  0  0
 46 24  1  0  0  0  0
 47 33  1  0  0  0  0
 47 49  2  0  0  0  0
 52 53  1  0  0  0  0
 52 54  1  0  0  0  0
 52 55  1  0  0  0  0
 53121  1  0  0  0  0
 53122  1  0  0  0  0
 53123  1  0  0  0  0
 54127  1  0  0  0  0
 54128  1  0  0  0  0
 54129  1  0  0  0  0
 55124  1  0  0  0  0
 55125  1  0  0  0  0
 55126  1  0  0  0  0
 56 57  1  0  0  0  0
 56 58  1  0  0  0  0
 56 59  1  0  0  0  0
 57 97  1  0  0  0  0
 57 98  1  0  0  0  0
 57 99  1  0  0  0  0
 58 94  1  0  0  0  0
 58 95  1  0  0  0  0
 58 96  1  0  0  0  0
 59100  1  0  0  0  0
 59101  1  0  0  0  0
 59102  1  0  0  0  0
 60 61  1  0  0  0  0
 60 62  1  0  0  0  0
 60 63  1  0  0  0  0
 61109  1  0  0  0  0
 61110  1  0  0  0  0
 61111  1  0  0  0  0
 62106  1  0  0  0  0
 62107  1  0  0  0  0
 62108  1  0  0  0  0
 63103  1  0  0  0  0
 63104  1  0  0  0  0
 63105  1  0  0  0  0
 64 65  1  0  0  0  0
 64 66  1  0  0  0  0
 64 67  1  0  0  0  0
 65112  1  0  0  0  0
 65113  1  0  0  0  0
 65114  1  0  0  0  0
 66115  1  0  0  0  0
 66116  1  0  0  0  0
 66117  1  0  0  0  0
 67118  1  0  0  0  0
 67119  1  0  0  0  0
 67120  1  0  0  0  0
 68 69  1  0  0  0  0
 68 70  1  0  0  0  0
 68 71  1  0  0  0  0
 69 91  1  0  0  0  0
 69 92  1  0  0  0  0
 69 93  1  0  0  0  0
 70 85  1  0  0  0  0
 70 86  1  0  0  0  0
 70 87  1  0  0  0  0
 71 88  1  0  0  0  0
 71 89  1  0  0  0  0
 71 90  1  0  0  0  0
 72 73  1  0  0  0  0
 72 74  1  0  0  0  0
 72 75  1  0  0  0  0
 73 79  1  0  0  0  0
 73 80  1  0  0  0  0
 73 81  1  0  0  0  0
 74 76  1  0  0  0  0
 74 77  1  0  0  0  0
 74 78  1  0  0  0  0
 75 82  1  0  0  0  0
 75 83  1  0  0  0  0
 75 84  1  0  0  0  0
M  CHG  1   1   0
M  END
