energy: -209.297109960102 gnorm: 0.000244390044 xtb: 6.7.1 (edcfbbe)_energy: -209.297109960102 gnorm: 0.000244390044 xtb: 6.7.1 (edcfbbe)
 OpenBabel03112514073D

282304  0  0  0  0  0  0  0  0999 V2000
   -2.1218   -3.0437    1.6914 C   0  0  0  0  0  0  0  0  0  0  0  0
   -2.2118   -1.7297    1.2300 C   0  0  0  0  0  0  0  0  0  0  0  0
   -2.9090   -1.4197    0.0317 C   0  0  0  0  0  0  0  0  0  0  0  0
   -3.3839   -2.5468   -0.6923 C   0  0  0  0  0  0  0  0  0  0  0  0
   -3.2112   -3.8446   -0.2379 C   0  0  0  0  0  0  0  0  0  0  0  0
   -2.6104   -4.1264    0.9822 C   0  0  0  0  0  0  0  0  0  0  0  0
   -3.2648   -0.0933   -0.3849 C   0  0  1  0  0  0  0  0  0  0  0  0
   -4.3679   -0.0102   -1.3018 C   0  0  0  0  0  0  0  0  0  0  0  0
   -4.7443   -1.0948   -2.1220 C   0  0  0  0  0  0  0  0  0  0  0  0
   -4.1181   -2.4040   -1.9505 C   0  0  0  0  0  0  0  0  0  0  0  0
   -2.7134    1.1677    0.0571 C   0  0  0  0  0  0  0  0  0  0  0  0
   -3.5483    2.3174    0.0109 C   0  0  0  0  0  0  0  0  0  0  0  0
   -4.9011    2.2897   -0.5503 C   0  0  0  0  0  0  0  0  0  0  0  0
   -5.1554    1.1500   -1.4286 C   0  0  0  0  0  0  0  0  0  0  0  0
   -6.1992    1.2341   -2.3425 C   0  0  0  0  0  0  0  0  0  0  0  0
   -6.5020    0.1942   -3.2086 C   0  0  0  0  0  0  0  0  0  0  0  0
   -5.7559   -0.9693   -3.0635 C   0  0  0  0  0  0  0  0  0  0  0  0
   -1.3625    1.4238    0.4319 C   0  0  0  0  0  0  0  0  0  0  0  0
   -0.9471    2.7207    0.7563 C   0  0  0  0  0  0  0  0  0  0  0  0
   -1.7947    3.8143    0.7641 C   0  0  0  0  0  0  0  0  0  0  0  0
   -3.1098    3.5742    0.3959 C   0  0  0  0  0  0  0  0  0  0  0  0
   -1.6034   -0.7932    1.9692 O   0  0  0  0  0  0  0  0  0  0  0  0
   -0.3905    0.5001    0.3888 O   0  0  0  0  0  0  0  0  0  0  0  0
   -0.2501   -0.4903    1.4559 B   0  5  1  0  0  0  0  0  0  0  0  0
    1.8013   -3.3922    1.4145 C   0  0  0  0  0  0  0  0  0  0  0  0
    1.6221   -2.0514    1.0549 C   0  0  0  0  0  0  0  0  0  0  0  0
    2.7474   -1.2490    0.7106 C   0  0  0  0  0  0  0  0  0  0  0  0
    3.9221   -2.0039    0.4345 C   0  0  0  0  0  0  0  0  0  0  0  0
    4.0631   -3.3365    0.8059 C   0  0  0  0  0  0  0  0  0  0  0  0
    3.0216   -4.0457    1.3789 C   0  0  0  0  0  0  0  0  0  0  0  0
    2.8263    0.1930    0.5705 C   0  0  2  0  0  0  0  0  0  0  0  0
    3.7907    0.6738   -0.3786 C   0  0  0  0  0  0  0  0  0  0  0  0
    4.7537   -0.1627   -0.9750 C   0  0  0  0  0  0  0  0  0  0  0  0
    2.2544    1.1795    1.4316 C   0  0  0  0  0  0  0  0  0  0  0  0
    2.6865    2.5341    1.3265 C   0  0  0  0  0  0  0  0  0  0  0  0
    3.2200    3.0490    0.0651 C   0  0  0  0  0  0  0  0  0  0  0  0
    3.8466    2.0302   -0.7690 C   0  0  0  0  0  0  0  0  0  0  0  0
    4.6287    2.4372   -1.8409 C   0  0  0  0  0  0  0  0  0  0  0  0
    5.4639    1.5637   -2.5277 C   0  0  0  0  0  0  0  0  0  0  0  0
    5.5591    0.2764   -2.0193 C   0  0  0  0  0  0  0  0  0  0  0  0
    1.3882    0.9517    2.5487 C   0  0  0  0  0  0  0  0  0  0  0  0
    1.4040    1.8313    3.6329 C   0  0  0  0  0  0  0  0  0  0  0  0
    2.0677    3.0487    3.6118 C   0  0  0  0  0  0  0  0  0  0  0  0
    2.6132    3.4231    2.3892 C   0  0  0  0  0  0  0  0  0  0  0  0
    0.5367   -0.0543    2.6318 O   0  0  0  0  0  0  0  0  0  0  0  0
    0.3464   -1.6992    0.9363 O   0  0  0  0  0  0  0  0  0  0  0  0
    5.0147   -1.4717   -0.3809 C   0  0  0  0  0  0  0  0  0  0  0  0
    3.2100    4.2445   -0.2185 O   0  0  0  0  0  0  0  0  0  0  0  0
    6.0546   -2.0900   -0.5965 O   0  0  0  0  0  0  0  0  0  0  0  0
   -4.2823   -3.3287   -2.7422 O   0  0  0  0  0  0  0  0  0  0  0  0
   -5.7222    3.1861   -0.3771 O   0  0  0  0  0  0  0  0  0  0  0  0
   -2.5098   -5.5652    1.4582 C   0  0  0  0  0  0  0  0  0  0  0  0
   -1.7467   -5.6948    2.7784 C   0  0  0  0  0  0  0  0  0  0  0  0
   -1.7849   -6.3942    0.3885 C   0  0  0  0  0  0  0  0  0  0  0  0
   -3.9291   -6.1142    1.6631 C   0  0  0  0  0  0  0  0  0  0  0  0
   -1.3660    5.2273    1.1164 C   0  0  0  0  0  0  0  0  0  0  0  0
   -1.6525    6.1509   -0.0760 C   0  0  0  0  0  0  0  0  0  0  0  0
   -2.1755    5.6885    2.3374 C   0  0  0  0  0  0  0  0  0  0  0  0
    0.1206    5.3251    1.4524 C   0  0  0  0  0  0  0  0  0  0  0  0
   -7.5982    0.2659   -4.2576 C   0  0  0  0  0  0  0  0  0  0  0  0
   -6.9786    0.0166   -5.6397 C   0  0  0  0  0  0  0  0  0  0  0  0
   -8.2961    1.6281   -4.2792 C   0  0  0  0  0  0  0  0  0  0  0  0
   -8.6475   -0.8136   -3.9579 C   0  0  0  0  0  0  0  0  0  0  0  0
    3.1560   -5.4689    1.8909 C   0  0  0  0  0  0  0  0  0  0  0  0
    2.2612   -6.3970    1.0600 C   0  0  0  0  0  0  0  0  0  0  0  0
    2.7174   -5.5055    3.3614 C   0  0  0  0  0  0  0  0  0  0  0  0
    4.5971   -5.9790    1.8057 C   0  0  0  0  0  0  0  0  0  0  0  0
    2.1260    3.9120    4.8597 C   0  0  0  0  0  0  0  0  0  0  0  0
    2.8531    3.1146    5.9525 C   0  0  0  0  0  0  0  0  0  0  0  0
    2.8872    5.2193    4.6243 C   0  0  0  0  0  0  0  0  0  0  0  0
    0.7087    4.2570    5.3367 C   0  0  0  0  0  0  0  0  0  0  0  0
    6.2679    2.0581   -3.7173 C   0  0  0  0  0  0  0  0  0  0  0  0
    7.2323    3.1563   -3.2481 C   0  0  0  0  0  0  0  0  0  0  0  0
    7.0833    0.9404   -4.3724 C   0  0  0  0  0  0  0  0  0  0  0  0
    5.3014    2.6292   -4.7642 C   0  0  0  0  0  0  0  0  0  0  0  0
    7.6013    1.3305   -5.2472 H   0  0  0  0  0  0  0  0  0  0  0  0
    6.4368    0.1275   -4.6944 H   0  0  0  0  0  0  0  0  0  0  0  0
    7.8297    0.5471   -3.6865 H   0  0  0  0  0  0  0  0  0  0  0  0
    7.8257    3.5196   -4.0855 H   0  0  0  0  0  0  0  0  0  0  0  0
    7.9068    2.7639   -2.4896 H   0  0  0  0  0  0  0  0  0  0  0  0
    6.6913    3.9960   -2.8208 H   0  0  0  0  0  0  0  0  0  0  0  0
    5.8537    2.9896   -5.6305 H   0  0  0  0  0  0  0  0  0  0  0  0
    4.7248    3.4552   -4.3579 H   0  0  0  0  0  0  0  0  0  0  0  0
    4.6068    1.8588   -5.0926 H   0  0  0  0  0  0  0  0  0  0  0  0
    2.9332    5.7876    5.5520 H   0  0  0  0  0  0  0  0  0  0  0  0
    2.3879    5.8307    3.8771 H   0  0  0  0  0  0  0  0  0  0  0  0
    3.9047    5.0218    4.2955 H   0  0  0  0  0  0  0  0  0  0  0  0
    0.7558    4.8408    6.2547 H   0  0  0  0  0  0  0  0  0  0  0  0
    0.1282    3.3598    5.5310 H   0  0  0  0  0  0  0  0  0  0  0  0
    0.1882    4.8439    4.5838 H   0  0  0  0  0  0  0  0  0  0  0  0
    2.9255    3.7030    6.8658 H   0  0  0  0  0  0  0  0  0  0  0  0
    3.8586    2.8588    5.6245 H   0  0  0  0  0  0  0  0  0  0  0  0
    2.3241    2.1926    6.1768 H   0  0  0  0  0  0  0  0  0  0  0  0
   -1.8793    6.6951    2.6287 H   0  0  0  0  0  0  0  0  0  0  0  0
   -2.0003    5.0174    3.1760 H   0  0  0  0  0  0  0  0  0  0  0  0
   -3.2408    5.6922    2.1236 H   0  0  0  0  0  0  0  0  0  0  0  0
   -1.3433    7.1684    0.1573 H   0  0  0  0  0  0  0  0  0  0  0  0
   -2.7096    6.1627   -0.3263 H   0  0  0  0  0  0  0  0  0  0  0  0
   -1.0967    5.8129   -0.9477 H   0  0  0  0  0  0  0  0  0  0  0  0
    0.3691    6.3522    1.7173 H   0  0  0  0  0  0  0  0  0  0  0  0
    0.7401    5.0383    0.6067 H   0  0  0  0  0  0  0  0  0  0  0  0
    0.3646    4.6842    2.2941 H   0  0  0  0  0  0  0  0  0  0  0  0
   -9.4477   -0.7767   -4.6954 H   0  0  0  0  0  0  0  0  0  0  0  0
   -9.0780   -0.6541   -2.9713 H   0  0  0  0  0  0  0  0  0  0  0  0
   -8.2062   -1.8060   -3.9802 H   0  0  0  0  0  0  0  0  0  0  0  0
   -9.0581    1.6358   -5.0571 H   0  0  0  0  0  0  0  0  0  0  0  0
   -7.5869    2.4245   -4.4916 H   0  0  0  0  0  0  0  0  0  0  0  0
   -8.7818    1.8326   -3.3281 H   0  0  0  0  0  0  0  0  0  0  0  0
   -7.7452    0.0660   -6.4113 H   0  0  0  0  0  0  0  0  0  0  0  0
   -6.5061   -0.9604   -5.6878 H   0  0  0  0  0  0  0  0  0  0  0  0
   -6.2235    0.7704   -5.8532 H   0  0  0  0  0  0  0  0  0  0  0  0
    2.3714   -7.4273    1.3946 H   0  0  0  0  0  0  0  0  0  0  0  0
    2.5359   -6.3420    0.0089 H   0  0  0  0  0  0  0  0  0  0  0  0
    1.2169   -6.1170    1.1544 H   0  0  0  0  0  0  0  0  0  0  0  0
    2.7865   -6.5197    3.7515 H   0  0  0  0  0  0  0  0  0  0  0  0
    1.6928   -5.1634    3.4739 H   0  0  0  0  0  0  0  0  0  0  0  0
    3.3572   -4.8594    3.9587 H   0  0  0  0  0  0  0  0  0  0  0  0
    4.6578   -6.9777    2.2357 H   0  0  0  0  0  0  0  0  0  0  0  0
    5.2716   -5.3285    2.3572 H   0  0  0  0  0  0  0  0  0  0  0  0
    4.9297   -6.0355    0.7723 H   0  0  0  0  0  0  0  0  0  0  0  0
   -1.6928   -6.7426    3.0710 H   0  0  0  0  0  0  0  0  0  0  0  0
   -2.2464   -5.1458    3.5729 H   0  0  0  0  0  0  0  0  0  0  0  0
   -0.7317   -5.3196    2.6782 H   0  0  0  0  0  0  0  0  0  0  0  0
   -3.8891   -7.1538    1.9845 H   0  0  0  0  0  0  0  0  0  0  0  0
   -4.5038   -6.0594    0.7427 H   0  0  0  0  0  0  0  0  0  0  0  0
   -4.4492   -5.5353    2.4237 H   0  0  0  0  0  0  0  0  0  0  0  0
   -1.6048   -7.4057    0.7495 H   0  0  0  0  0  0  0  0  0  0  0  0
   -0.8302   -5.9354    0.1418 H   0  0  0  0  0  0  0  0  0  0  0  0
   -2.3713   -6.4569   -0.5234 H   0  0  0  0  0  0  0  0  0  0  0  0
   -3.5916   -4.6290   -0.8752 H   0  0  0  0  0  0  0  0  0  0  0  0
   -1.6043   -3.1609    2.6297 H   0  0  0  0  0  0  0  0  0  0  0  0
   -5.9501   -1.8420   -3.6704 H   0  0  0  0  0  0  0  0  0  0  0  0
   -6.7561    2.1581   -2.3411 H   0  0  0  0  0  0  0  0  0  0  0  0
   -3.8400    4.3686    0.3506 H   0  0  0  0  0  0  0  0  0  0  0  0
    0.0986    2.8288    0.9921 H   0  0  0  0  0  0  0  0  0  0  0  0
    0.8131    1.5269    4.4830 H   0  0  0  0  0  0  0  0  0  0  0  0
    3.0104    4.4100    2.2159 H   0  0  0  0  0  0  0  0  0  0  0  0
    0.8979   -3.9058    1.7042 H   0  0  0  0  0  0  0  0  0  0  0  0
    5.0191   -3.7865    0.5913 H   0  0  0  0  0  0  0  0  0  0  0  0
    4.5835    3.4874   -2.0913 H   0  0  0  0  0  0  0  0  0  0  0  0
    6.2718   -0.4374   -2.4018 H   0  0  0  0  0  0  0  0  0  0  0  0
   -2.1218   -3.0437    9.6914 C   0  0  0  0  0  0  0  0  0  0  0  0
   -2.2118   -1.7297    9.2300 C   0  0  0  0  0  0  0  0  0  0  0  0
   -2.9090   -1.4197    8.0317 C   0  0  0  0  0  0  0  0  0  0  0  0
   -3.3839   -2.5468    7.3077 C   0  0  0  0  0  0  0  0  0  0  0  0
   -3.2112   -3.8446    7.7621 C   0  0  0  0  0  0  0  0  0  0  0  0
   -2.6104   -4.1264    8.9822 C   0  0  0  0  0  0  0  0  0  0  0  0
   -3.2648   -0.0933    7.6151 C   0  0  1  0  0  0  0  0  0  0  0  0
   -4.3679   -0.0102    6.6982 C   0  0  0  0  0  0  0  0  0  0  0  0
   -4.7443   -1.0948    5.8780 C   0  0  0  0  0  0  0  0  0  0  0  0
   -4.1181   -2.4040    6.0495 C   0  0  0  0  0  0  0  0  0  0  0  0
   -2.7134    1.1677    8.0571 C   0  0  0  0  0  0  0  0  0  0  0  0
   -3.5483    2.3174    8.0109 C   0  0  0  0  0  0  0  0  0  0  0  0
   -4.9011    2.2897    7.4497 C   0  0  0  0  0  0  0  0  0  0  0  0
   -5.1554    1.1500    6.5714 C   0  0  0  0  0  0  0  0  0  0  0  0
   -6.1992    1.2341    5.6575 C   0  0  0  0  0  0  0  0  0  0  0  0
   -6.5020    0.1942    4.7914 C   0  0  0  0  0  0  0  0  0  0  0  0
   -5.7559   -0.9693    4.9365 C   0  0  0  0  0  0  0  0  0  0  0  0
   -1.3625    1.4238    8.4319 C   0  0  0  0  0  0  0  0  0  0  0  0
   -0.9471    2.7207    8.7563 C   0  0  0  0  0  0  0  0  0  0  0  0
   -1.7947    3.8143    8.7641 C   0  0  0  0  0  0  0  0  0  0  0  0
   -3.1098    3.5742    8.3959 C   0  0  0  0  0  0  0  0  0  0  0  0
   -1.6034   -0.7932    9.9692 O   0  0  0  0  0  0  0  0  0  0  0  0
   -0.3905    0.5001    8.3888 O   0  0  0  0  0  0  0  0  0  0  0  0
   -0.2501   -0.4903    9.4559 B   0  5  1  0  0  0  0  0  0  0  0  0
    1.8013   -3.3922    9.4145 C   0  0  0  0  0  0  0  0  0  0  0  0
    1.6221   -2.0514    9.0549 C   0  0  0  0  0  0  0  0  0  0  0  0
    2.7474   -1.2490    8.7106 C   0  0  0  0  0  0  0  0  0  0  0  0
    3.9221   -2.0039    8.4345 C   0  0  0  0  0  0  0  0  0  0  0  0
    4.0631   -3.3365    8.8059 C   0  0  0  0  0  0  0  0  0  0  0  0
    3.0216   -4.0457    9.3789 C   0  0  0  0  0  0  0  0  0  0  0  0
    2.8263    0.1930    8.5705 C   0  0  2  0  0  0  0  0  0  0  0  0
    3.7907    0.6738    7.6214 C   0  0  0  0  0  0  0  0  0  0  0  0
    4.7537   -0.1627    7.0250 C   0  0  0  0  0  0  0  0  0  0  0  0
    2.2544    1.1795    9.4316 C   0  0  0  0  0  0  0  0  0  0  0  0
    2.6865    2.5341    9.3265 C   0  0  0  0  0  0  0  0  0  0  0  0
    3.2200    3.0490    8.0651 C   0  0  0  0  0  0  0  0  0  0  0  0
    3.8466    2.0302    7.2310 C   0  0  0  0  0  0  0  0  0  0  0  0
    4.6287    2.4372    6.1591 C   0  0  0  0  0  0  0  0  0  0  0  0
    5.4639    1.5637    5.4723 C   0  0  0  0  0  0  0  0  0  0  0  0
    5.5591    0.2764    5.9807 C   0  0  0  0  0  0  0  0  0  0  0  0
    1.3882    0.9517   10.5487 C   0  0  0  0  0  0  0  0  0  0  0  0
    1.4040    1.8313   11.6329 C   0  0  0  0  0  0  0  0  0  0  0  0
    2.0677    3.0487   11.6118 C   0  0  0  0  0  0  0  0  0  0  0  0
    2.6132    3.4231   10.3892 C   0  0  0  0  0  0  0  0  0  0  0  0
    0.5367   -0.0543   10.6318 O   0  0  0  0  0  0  0  0  0  0  0  0
    0.3464   -1.6992    8.9363 O   0  0  0  0  0  0  0  0  0  0  0  0
    5.0147   -1.4717    7.6191 C   0  0  0  0  0  0  0  0  0  0  0  0
    3.2100    4.2445    7.7815 O   0  0  0  0  0  0  0  0  0  0  0  0
    6.0546   -2.0900    7.4035 O   0  0  0  0  0  0  0  0  0  0  0  0
   -4.2823   -3.3287    5.2578 O   0  0  0  0  0  0  0  0  0  0  0  0
   -5.7222    3.1861    7.6229 O   0  0  0  0  0  0  0  0  0  0  0  0
   -2.5098   -5.5652    9.4582 C   0  0  0  0  0  0  0  0  0  0  0  0
   -1.7467   -5.6948   10.7784 C   0  0  0  0  0  0  0  0  0  0  0  0
   -1.7849   -6.3942    8.3885 C   0  0  0  0  0  0  0  0  0  0  0  0
   -3.9291   -6.1142    9.6631 C   0  0  0  0  0  0  0  0  0  0  0  0
   -1.3660    5.2273    9.1164 C   0  0  0  0  0  0  0  0  0  0  0  0
   -1.6525    6.1509    7.9240 C   0  0  0  0  0  0  0  0  0  0  0  0
   -2.1755    5.6885   10.3374 C   0  0  0  0  0  0  0  0  0  0  0  0
    0.1206    5.3251    9.4524 C   0  0  0  0  0  0  0  0  0  0  0  0
   -7.5982    0.2659    3.7424 C   0  0  0  0  0  0  0  0  0  0  0  0
   -6.9786    0.0166    2.3603 C   0  0  0  0  0  0  0  0  0  0  0  0
   -8.2961    1.6281    3.7208 C   0  0  0  0  0  0  0  0  0  0  0  0
   -8.6475   -0.8136    4.0421 C   0  0  0  0  0  0  0  0  0  0  0  0
    3.1560   -5.4689    9.8909 C   0  0  0  0  0  0  0  0  0  0  0  0
    2.2612   -6.3970    9.0600 C   0  0  0  0  0  0  0  0  0  0  0  0
    2.7174   -5.5055   11.3614 C   0  0  0  0  0  0  0  0  0  0  0  0
    4.5971   -5.9790    9.8057 C   0  0  0  0  0  0  0  0  0  0  0  0
    2.1260    3.9120   12.8597 C   0  0  0  0  0  0  0  0  0  0  0  0
    2.8531    3.1146   13.9525 C   0  0  0  0  0  0  0  0  0  0  0  0
    2.8872    5.2193   12.6243 C   0  0  0  0  0  0  0  0  0  0  0  0
    0.7087    4.2570   13.3367 C   0  0  0  0  0  0  0  0  0  0  0  0
    6.2679    2.0581    4.2827 C   0  0  0  0  0  0  0  0  0  0  0  0
    7.2323    3.1563    4.7519 C   0  0  0  0  0  0  0  0  0  0  0  0
    7.0833    0.9404    3.6276 C   0  0  0  0  0  0  0  0  0  0  0  0
    5.3014    2.6292    3.2358 C   0  0  0  0  0  0  0  0  0  0  0  0
    7.6013    1.3305    2.7528 H   0  0  0  0  0  0  0  0  0  0  0  0
    6.4368    0.1275    3.3056 H   0  0  0  0  0  0  0  0  0  0  0  0
    7.8297    0.5471    4.3135 H   0  0  0  0  0  0  0  0  0  0  0  0
    7.8257    3.5196    3.9145 H   0  0  0  0  0  0  0  0  0  0  0  0
    7.9068    2.7639    5.5104 H   0  0  0  0  0  0  0  0  0  0  0  0
    6.6913    3.9960    5.1792 H   0  0  0  0  0  0  0  0  0  0  0  0
    5.8537    2.9896    2.3695 H   0  0  0  0  0  0  0  0  0  0  0  0
    4.7248    3.4552    3.6421 H   0  0  0  0  0  0  0  0  0  0  0  0
    4.6068    1.8588    2.9074 H   0  0  0  0  0  0  0  0  0  0  0  0
    2.9332    5.7876   13.5520 H   0  0  0  0  0  0  0  0  0  0  0  0
    2.3879    5.8307   11.8771 H   0  0  0  0  0  0  0  0  0  0  0  0
    3.9047    5.0218   12.2955 H   0  0  0  0  0  0  0  0  0  0  0  0
    0.7558    4.8408   14.2547 H   0  0  0  0  0  0  0  0  0  0  0  0
    0.1282    3.3598   13.5310 H   0  0  0  0  0  0  0  0  0  0  0  0
    0.1882    4.8439   12.5838 H   0  0  0  0  0  0  0  0  0  0  0  0
    2.9255    3.7030   14.8658 H   0  0  0  0  0  0  0  0  0  0  0  0
    3.8586    2.8588   13.6245 H   0  0  0  0  0  0  0  0  0  0  0  0
    2.3241    2.1926   14.1768 H   0  0  0  0  0  0  0  0  0  0  0  0
   -1.8793    6.6951   10.6287 H   0  0  0  0  0  0  0  0  0  0  0  0
   -2.0003    5.0174   11.1760 H   0  0  0  0  0  0  0  0  0  0  0  0
   -3.2408    5.6922   10.1236 H   0  0  0  0  0  0  0  0  0  0  0  0
   -1.3433    7.1684    8.1573 H   0  0  0  0  0  0  0  0  0  0  0  0
   -2.7096    6.1627    7.6737 H   0  0  0  0  0  0  0  0  0  0  0  0
   -1.0967    5.8129    7.0523 H   0  0  0  0  0  0  0  0  0  0  0  0
    0.3691    6.3522    9.7173 H   0  0  0  0  0  0  0  0  0  0  0  0
    0.7401    5.0383    8.6067 H   0  0  0  0  0  0  0  0  0  0  0  0
    0.3646    4.6842   10.2941 H   0  0  0  0  0  0  0  0  0  0  0  0
   -9.4477   -0.7767    3.3046 H   0  0  0  0  0  0  0  0  0  0  0  0
   -9.0780   -0.6541    5.0287 H   0  0  0  0  0  0  0  0  0  0  0  0
   -8.2062   -1.8060    4.0198 H   0  0  0  0  0  0  0  0  0  0  0  0
   -9.0581    1.6358    2.9429 H   0  0  0  0  0  0  0  0  0  0  0  0
   -7.5869    2.4245    3.5084 H   0  0  0  0  0  0  0  0  0  0  0  0
   -8.7818    1.8326    4.6719 H   0  0  0  0  0  0  0  0  0  0  0  0
   -7.7452    0.0660    1.5887 H   0  0  0  0  0  0  0  0  0  0  0  0
   -6.5061   -0.9604    2.3122 H   0  0  0  0  0  0  0  0  0  0  0  0
   -6.2235    0.7704    2.1468 H   0  0  0  0  0  0  0  0  0  0  0  0
    2.3714   -7.4273    9.3946 H   0  0  0  0  0  0  0  0  0  0  0  0
    2.5359   -6.3420    8.0089 H   0  0  0  0  0  0  0  0  0  0  0  0
    1.2169   -6.1170    9.1544 H   0  0  0  0  0  0  0  0  0  0  0  0
    2.7865   -6.5197   11.7515 H   0  0  0  0  0  0  0  0  0  0  0  0
    1.6928   -5.1634   11.4739 H   0  0  0  0  0  0  0  0  0  0  0  0
    3.3572   -4.8594   11.9587 H   0  0  0  0  0  0  0  0  0  0  0  0
    4.6578   -6.9777   10.2357 H   0  0  0  0  0  0  0  0  0  0  0  0
    5.2716   -5.3285   10.3572 H   0  0  0  0  0  0  0  0  0  0  0  0
    4.9297   -6.0355    8.7723 H   0  0  0  0  0  0  0  0  0  0  0  0
   -1.6928   -6.7426   11.0710 H   0  0  0  0  0  0  0  0  0  0  0  0
   -2.2464   -5.1458   11.5729 H   0  0  0  0  0  0  0  0  0  0  0  0
   -0.7317   -5.3196   10.6782 H   0  0  0  0  0  0  0  0  0  0  0  0
   -3.8891   -7.1538    9.9845 H   0  0  0  0  0  0  0  0  0  0  0  0
   -4.5038   -6.0594    8.7427 H   0  0  0  0  0  0  0  0  0  0  0  0
   -4.4492   -5.5353   10.4237 H   0  0  0  0  0  0  0  0  0  0  0  0
   -1.6048   -7.4057    8.7495 H   0  0  0  0  0  0  0  0  0  0  0  0
   -0.8302   -5.9354    8.1418 H   0  0  0  0  0  0  0  0  0  0  0  0
   -2.3713   -6.4569    7.4766 H   0  0  0  0  0  0  0  0  0  0  0  0
   -3.5916   -4.6290    7.1248 H   0  0  0  0  0  0  0  0  0  0  0  0
   -1.6043   -3.1609   10.6297 H   0  0  0  0  0  0  0  0  0  0  0  0
   -5.9501   -1.8420    4.3296 H   0  0  0  0  0  0  0  0  0  0  0  0
   -6.7561    2.1581    5.6589 H   0  0  0  0  0  0  0  0  0  0  0  0
   -3.8400    4.3686    8.3506 H   0  0  0  0  0  0  0  0  0  0  0  0
    0.0986    2.8288    8.9921 H   0  0  0  0  0  0  0  0  0  0  0  0
    0.8131    1.5269   12.4830 H   0  0  0  0  0  0  0  0  0  0  0  0
    3.0104    4.4100   10.2159 H   0  0  0  0  0  0  0  0  0  0  0  0
    0.8979   -3.9058    9.7042 H   0  0  0  0  0  0  0  0  0  0  0  0
    5.0191   -3.7865    8.5913 H   0  0  0  0  0  0  0  0  0  0  0  0
    4.5835    3.4874    5.9087 H   0  0  0  0  0  0  0  0  0  0  0  0
    6.2718   -0.4374    5.5982 H   0  0  0  0  0  0  0  0  0  0  0  0
  1  2  2  0  0  0  0
  1131  1  0  0  0  0
  2  3  1  0  0  0  0
  2 22  1  0  0  0  0
  3  4  2  0  0  0  0
  4  5  1  0  0  0  0
  5  6  2  0  0  0  0
  5130  1  0  0  0  0
  6 52  1  0  0  0  0
  6  1  1  0  0  0  0
  7  3  1  1  0  0  0
  7  8  1  0  0  0  0
  7 11  1  0  0  0  0
  8  9  2  0  0  0  0
  9 10  1  0  0  0  0
 10  4  1  0  0  0  0
 10 50  2  0  0  0  0
 11 12  2  0  0  0  0
 11 18  1  0  0  0  0
 13 14  1  0  0  0  0
 13 12  1  0  0  0  0
 13 51  2  0  0  0  0
 14  8  1  0  0  0  0
 14 15  2  0  0  0  0
 15 16  1  0  0  0  0
 15133  1  0  0  0  0
 16 60  1  0  0  0  0
 16 17  2  0  0  0  0
 17  9  1  0  0  0  0
 17132  1  0  0  0  0
 18 19  2  0  0  0  0
 18 23  1  0  0  0  0
 19 20  1  0  0  0  0
 19135  1  0  0  0  0
 20 56  1  0  0  0  0
 20 21  2  0  0  0  0
 21 12  1  0  0  0  0
 21134  1  0  0  0  0
 24 23  1  6  0  0  0
 24 22  1  0  0  0  0
 25 26  2  0  0  0  0
 25138  1  0  0  0  0
 26 27  1  0  0  0  0
 26 46  1  0  0  0  0
 27 28  2  0  0  0  0
 28 29  1  0  0  0  0
 28 47  1  0  0  0  0
 29 30  2  0  0  0  0
 29139  1  0  0  0  0
 30 64  1  0  0  0  0
 30 25  1  0  0  0  0
 31 27  1  1  0  0  0
 31 32  1  0  0  0  0
 32 33  2  0  0  0  0
 34 35  2  0  0  0  0
 34 41  1  0  0  0  0
 34 31  1  0  0  0  0
 36 37  1  0  0  0  0
 36 35  1  0  0  0  0
 36 48  2  0  0  0  0
 37 32  1  0  0  0  0
 37 38  2  0  0  0  0
 38 39  1  0  0  0  0
 38140  1  0  0  0  0
 39 72  1  0  0  0  0
 39 40  2  0  0  0  0
 40 33  1  0  0  0  0
 40141  1  0  0  0  0
 41 42  2  0  0  0  0
 41 45  1  0  0  0  0
 42 43  1  0  0  0  0
 42136  1  0  0  0  0
 43 68  1  0  0  0  0
 43 44  2  0  0  0  0
 44 35  1  0  0  0  0
 44137  1  0  0  0  0
 45 24  1  0  0  0  0
 46 24  1  0  0  0  0
 47 33  1  0  0  0  0
 47 49  2  0  0  0  0
 52 53  1  0  0  0  0
 52 54  1  0  0  0  0
 52 55  1  0  0  0  0
 53121  1  0  0  0  0
 53122  1  0  0  0  0
 53123  1  0  0  0  0
 54127  1  0  0  0  0
 54128  1  0  0  0  0
 54129  1  0  0  0  0
 55124  1  0  0  0  0
 55125  1  0  0  0  0
 55126  1  0  0  0  0
 56 57  1  0  0  0  0
 56 58  1  0  0  0  0
 56 59  1  0  0  0  0
 57 97  1  0  0  0  0
 57 98  1  0  0  0  0
 57 99  1  0  0  0  0
 58 94  1  0  0  0  0
 58 95  1  0  0  0  0
 58 96  1  0  0  0  0
 59100  1  0  0  0  0
 59101  1  0  0  0  0
 59102  1  0  0  0  0
 60 61  1  0  0  0  0
 60 62  1  0  0  0  0
 60 63  1  0  0  0  0
 61109  1  0  0  0  0
 61110  1  0  0  0  0
 61111  1  0  0  0  0
 62106  1  0  0  0  0
 62107  1  0  0  0  0
 62108  1  0  0  0  0
 63103  1  0  0  0  0
 63104  1  0  0  0  0
 63105  1  0  0  0  0
 64 65  1  0  0  0  0
 64 66  1  0  0  0  0
 64 67  1  0  0  0  0
 65112  1  0  0  0  0
 65113  1  0  0  0  0
 65114  1  0  0  0  0
 66115  1  0  0  0  0
 66116  1  0  0  0  0
 66117  1  0  0  0  0
 67118  1  0  0  0  0
 67119  1  0  0  0  0
 67120  1  0  0  0  0
 68 69  1  0  0  0  0
 68 70  1  0  0  0  0
 68 71  1  0  0  0  0
 69 91  1  0  0  0  0
 69 92  1  0  0  0  0
 69 93  1  0  0  0  0
 70 85  1  0  0  0  0
 70 86  1  0  0  0  0
 70 87  1  0  0  0  0
 71 88  1  0  0  0  0
 71 89  1  0  0  0  0
 71 90  1  0  0  0  0
 72 73  1  0  0  0  0
 72 74  1  0  0  0  0
 72 75  1  0  0  0  0
 73 79  1  0  0  0  0
 73 80  1  0  0  0  0
 73 81  1  0  0  0  0
 74 76  1  0  0  0  0
 74 77  1  0  0  0  0
 74 78  1  0  0  0  0
 75 82  1  0  0  0  0
 75 83  1  0  0  0  0
 75 84  1  0  0  0  0
142143  2  0  0  0  0
142272  1  0  0  0  0
143144  1  0  0  0  0
143163  1  0  0  0  0
144145  2  0  0  0  0
145146  1  0  0  0  0
146147  2  0  0  0  0
146271  1  0  0  0  0
147193  1  0  0  0  0
147142  1  0  0  0  0
148144  1  1  0  0  0
148149  1  0  0  0  0
148152  1  0  0  0  0
149150  2  0  0  0  0
150151  1  0  0  0  0
151145  1  0  0  0  0
151191  2  0  0  0  0
152153  2  0  0  0  0
152159  1  0  0  0  0
154155  1  0  0  0  0
154153  1  0  0  0  0
154192  2  0  0  0  0
155149  1  0  0  0  0
155156  2  0  0  0  0
156157  1  0  0  0  0
156274  1  0  0  0  0
157201  1  0  0  0  0
157158  2  0  0  0  0
158150  1  0  0  0  0
158273  1  0  0  0  0
159160  2  0  0  0  0
159164  1  0  0  0  0
160161  1  0  0  0  0
160276  1  0  0  0  0
161197  1  0  0  0  0
161162  2  0  0  0  0
162153  1  0  0  0  0
162275  1  0  0  0  0
165164  1  6  0  0  0
165163  1  0  0  0  0
166167  2  0  0  0  0
166279  1  0  0  0  0
167168  1  0  0  0  0
167187  1  0  0  0  0
168169  2  0  0  0  0
169170  1  0  0  0  0
169188  1  0  0  0  0
170171  2  0  0  0  0
170280  1  0  0  0  0
171205  1  0  0  0  0
171166  1  0  0  0  0
172168  1  1  0  0  0
172173  1  0  0  0  0
173174  2  0  0  0  0
175176  2  0  0  0  0
175182  1  0  0  0  0
175172  1  0  0  0  0
177178  1  0  0  0  0
177176  1  0  0  0  0
177189  2  0  0  0  0
178173  1  0  0  0  0
178179  2  0  0  0  0
179180  1  0  0  0  0
179281  1  0  0  0  0
180213  1  0  0  0  0
180181  2  0  0  0  0
181174  1  0  0  0  0
181282  1  0  0  0  0
182183  2  0  0  0  0
182186  1  0  0  0  0
183184  1  0  0  0  0
183277  1  0  0  0  0
184209  1  0  0  0  0
184185  2  0  0  0  0
185176  1  0  0  0  0
185278  1  0  0  0  0
186165  1  0  0  0  0
187165  1  0  0  0  0
188174  1  0  0  0  0
188190  2  0  0  0  0
193194  1  0  0  0  0
193195  1  0  0  0  0
193196  1  0  0  0  0
194262  1  0  0  0  0
194263  1  0  0  0  0
194264  1  0  0  0  0
195268  1  0  0  0  0
195269  1  0  0  0  0
195270  1  0  0  0  0
196265  1  0  0  0  0
196266  1  0  0  0  0
196267  1  0  0  0  0
197198  1  0  0  0  0
197199  1  0  0  0  0
197200  1  0  0  0  0
198238  1  0  0  0  0
198239  1  0  0  0  0
198240  1  0  0  0  0
199235  1  0  0  0  0
199236  1  0  0  0  0
199237  1  0  0  0  0
200241  1  0  0  0  0
200242  1  0  0  0  0
200243  1  0  0  0  0
201202  1  0  0  0  0
201203  1  0  0  0  0
201204  1  0  0  0  0
202250  1  0  0  0  0
202251  1  0  0  0  0
202252  1  0  0  0  0
203247  1  0  0  0  0
203248  1  0  0  0  0
203249  1  0  0  0  0
204244  1  0  0  0  0
204245  1  0  0  0  0
204246  1  0  0  0  0
205206  1  0  0  0  0
205207  1  0  0  0  0
205208  1  0  0  0  0
206253  1  0  0  0  0
206254  1  0  0  0  0
206255  1  0  0  0  0
207256  1  0  0  0  0
207257  1  0  0  0  0
207258  1  0  0  0  0
208259  1  0  0  0  0
208260  1  0  0  0  0
208261  1  0  0  0  0
209210  1  0  0  0  0
209211  1  0  0  0  0
209212  1  0  0  0  0
210232  1  0  0  0  0
210233  1  0  0  0  0
210234  1  0  0  0  0
211226  1  0  0  0  0
211227  1  0  0  0  0
211228  1  0  0  0  0
212229  1  0  0  0  0
212230  1  0  0  0  0
212231  1  0  0  0  0
213214  1  0  0  0  0
213215  1  0  0  0  0
213216  1  0  0  0  0
214220  1  0  0  0  0
214221  1  0  0  0  0
214222  1  0  0  0  0
215217  1  0  0  0  0
215218  1  0  0  0  0
215219  1  0  0  0  0
216223  1  0  0  0  0
216224  1  0  0  0  0
216225  1  0  0  0  0
M  CHG  2  24  -1 165  -1
M  END
