 energy: -165.730195019156 gnorm: 0.000291745142 xtb: 6.7.1 (edcfbbe)
          03032515033D

 75 79  0     0  0            999 V2000
    0.0783    3.7994    0.2765 C   0  0  0  0  0  0  0  0  0  0  0  0
    0.5350   -3.3442    1.9511 C   0  0  0  0  0  0  0  0  0  0  0  0
   -4.1397    1.5717   -1.4607 C   0  0  0  0  0  0  0  0  0  0  0  0
   -3.5079    0.6050   -0.6888 C   0  0  0  0  0  0  0  0  0  0  0  0
   -2.2965    0.9418   -0.0079 C   0  0  0  0  0  0  0  0  0  0  0  0
   -1.6491    2.1744   -0.2869 C   0  0  0  0  0  0  0  0  0  0  0  0
   -2.3217    3.1303   -1.0684 C   0  0  0  0  0  0  0  0  0  0  0  0
   -3.5402    2.8059   -1.5902 C   0  0  0  0  0  0  0  0  0  0  0  0
   -1.6635    0.0526    0.9095 C   0  0  0  0  0  0  0  0  0  0  0  0
   -0.2700    0.1774    1.0614 C   0  0  0  0  0  0  0  0  0  0  0  0
    0.3727    1.3898    0.6692 C   0  0  0  0  0  0  0  0  0  0  0  0
   -0.3945    2.4226    0.2045 N   0  0  0  0  0  0  0  0  0  0  0  0
   -2.3107   -0.9537    1.6846 C   0  0  0  0  0  0  0  0  0  0  0  0
   -1.5324   -2.0624    2.1100 C   0  0  0  0  0  0  0  0  0  0  0  0
   -0.1777   -2.0736    1.9072 N   0  0  0  0  0  0  0  0  0  0  0  0
    0.4764   -0.9107    1.6050 C   0  0  0  0  0  0  0  0  0  0  0  0
    1.8540   -0.7487    1.7789 C   0  0  0  0  0  0  0  0  0  0  0  0
    2.4364    0.4214    1.3619 C   0  0  0  0  0  0  0  0  0  0  0  0
    1.7615    1.4772    0.8035 C   0  0  0  0  0  0  0  0  0  0  0  0
   -3.6793   -0.8501    2.0853 C   0  0  0  0  0  0  0  0  0  0  0  0
   -4.2847   -1.9353    2.7060 C   0  0  0  0  0  0  0  0  0  0  0  0
   -3.5213   -3.0523    2.9691 C   0  0  0  0  0  0  0  0  0  0  0  0
   -2.1807   -3.1443    2.7315 C   0  0  0  0  0  0  0  0  0  0  0  0
   -4.2787    0.3210    1.8812 O   0  0  0  0  0  0  0  0  0  0  0  0
   -3.9300   -0.6533   -0.5814 O   0  0  0  0  0  0  0  0  0  0  0  0
   -5.0731    1.3882   -1.9618 H   0  0  0  0  0  0  0  0  0  0  0  0
   -1.9026    4.0917   -1.2979 H   0  0  0  0  0  0  0  0  0  0  0  0
   -5.3219   -1.9314    2.9892 H   0  0  0  0  0  0  0  0  0  0  0  0
   -1.6600   -4.0264    3.0534 H   0  0  0  0  0  0  0  0  0  0  0  0
    2.4746   -1.4877    2.2520 H   0  0  0  0  0  0  0  0  0  0  0  0
    2.3303    2.3227    0.4620 H   0  0  0  0  0  0  0  0  0  0  0  0
    0.0958   -4.2666    0.8057 C   0  0  0  0  0  0  0  0  0  0  0  0
    0.8513   -5.5876    0.8777 C   0  0  0  0  0  0  0  0  0  0  0  0
   -0.7571    4.6248    1.2648 C   0  0  0  0  0  0  0  0  0  0  0  0
   -0.2533    6.0621    1.3023 C   0  0  0  0  0  0  0  0  0  0  0  0
   -5.6133    0.5129    2.3289 C   0  0  0  0  0  0  0  0  0  0  0  0
   -5.0841   -1.0696   -1.2980 C   0  0  0  0  0  0  0  0  0  0  0  0
   -4.4402    4.1037   -2.5489 S   0  0  0  0  0  0  0  0  0  0  0  0
   -4.0969    5.2345   -1.3909 F   0  0  0  0  0  0  0  0  0  0  0  0
   -3.0687    4.5340   -3.3589 F   0  0  0  0  0  0  0  0  0  0  0  0
   -5.8523    3.7377   -1.7709 F   0  0  0  0  0  0  0  0  0  0  0  0
   -5.2252    5.2312   -3.3558 F   0  0  0  0  0  0  0  0  0  0  0  0
   -4.8252    3.0351   -3.7429 F   0  0  0  0  0  0  0  0  0  0  0  0
   -4.3678   -4.5218    3.7023 S   0  0  0  0  0  0  0  0  0  0  0  0
   -5.6131   -4.3745    2.6252 F   0  0  0  0  0  0  0  0  0  0  0  0
   -5.1914   -3.5836    4.7776 F   0  0  0  0  0  0  0  0  0  0  0  0
   -5.1003   -5.7989    4.3118 F   0  0  0  0  0  0  0  0  0  0  0  0
   -3.5819   -5.5302    2.6515 F   0  0  0  0  0  0  0  0  0  0  0  0
   -3.1566   -4.7414    4.8007 F   0  0  0  0  0  0  0  0  0  0  0  0
    4.2674    0.5879    1.5676 S   0  0  0  0  0  0  0  0  0  0  0  0
    4.5084   -0.9501    1.0194 F   0  0  0  0  0  0  0  0  0  0  0  0
    4.4264    1.1677    0.0322 F   0  0  0  0  0  0  0  0  0  0  0  0
    5.8430    0.7315    1.7444 F   0  0  0  0  0  0  0  0  0  0  0  0
    4.1035    2.1329    2.1245 F   0  0  0  0  0  0  0  0  0  0  0  0
    4.1853    0.0154    3.1113 F   0  0  0  0  0  0  0  0  0  0  0  0
    0.3766   -3.8281    2.9167 H   0  0  0  0  0  0  0  0  0  0  0  0
    1.6004   -3.1615    1.8395 H   0  0  0  0  0  0  0  0  0  0  0  0
    0.3080   -3.7733   -0.1448 H   0  0  0  0  0  0  0  0  0  0  0  0
   -0.9764   -4.4586    0.8562 H   0  0  0  0  0  0  0  0  0  0  0  0
    1.9239   -5.4269    0.8084 H   0  0  0  0  0  0  0  0  0  0  0  0
    0.5499   -6.2315    0.0573 H   0  0  0  0  0  0  0  0  0  0  0  0
    0.6364   -6.1036    1.8094 H   0  0  0  0  0  0  0  0  0  0  0  0
   -5.2101   -2.1226   -1.0525 H   0  0  0  0  0  0  0  0  0  0  0  0
   -4.9410   -0.9578   -2.3746 H   0  0  0  0  0  0  0  0  0  0  0  0
   -5.9688   -0.5111   -0.9856 H   0  0  0  0  0  0  0  0  0  0  0  0
   -5.8631    1.5369    2.0569 H   0  0  0  0  0  0  0  0  0  0  0  0
   -5.6868    0.3921    3.4116 H   0  0  0  0  0  0  0  0  0  0  0  0
   -6.3014   -0.1765    1.8354 H   0  0  0  0  0  0  0  0  0  0  0  0
    0.0578    4.2534   -0.7161 H   0  0  0  0  0  0  0  0  0  0  0  0
    1.1070    3.8072    0.6264 H   0  0  0  0  0  0  0  0  0  0  0  0
   -0.6707    4.1788    2.2575 H   0  0  0  0  0  0  0  0  0  0  0  0
   -1.8096    4.6166    0.9798 H   0  0  0  0  0  0  0  0  0  0  0  0
    0.7913    6.1008    1.5995 H   0  0  0  0  0  0  0  0  0  0  0  0
   -0.8321    6.6389    2.0171 H   0  0  0  0  0  0  0  0  0  0  0  0
   -0.3552    6.5311    0.3275 H   0  0  0  0  0  0  0  0  0  0  0  0
  1 34  1  0  0  0  0
  1 69  1  0  0  0  0
  1 70  1  0  0  0  0
  2 32  1  0  0  0  0
  2 56  1  0  0  0  0
  2 57  1  0  0  0  0
  3  4  2  0  0  0  0
  3 26  1  0  0  0  0
  4  5  1  0  0  0  0
  4 25  1  0  0  0  0
  5  6  2  0  0  0  0
  5  9  1  0  0  0  0
  6  7  1  0  0  0  0
  7  8  2  0  0  0  0
  7 27  1  0  0  0  0
  8 38  1  0  0  0  0
  8  3  1  0  0  0  0
  9 10  1  0  0  0  0
 10 11  2  0  0  0  0
 11 12  1  0  0  0  0
 12  1  1  0  0  0  0
 12  6  1  0  0  0  0
 13 14  2  0  0  0  0
 13 20  1  0  0  0  0
 13  9  1  0  0  0  0
 14 15  1  0  0  0  0
 15  2  1  0  0  0  0
 15 16  1  0  0  0  0
 16 10  1  0  0  0  0
 16 17  2  0  0  0  0
 17 18  1  0  0  0  0
 17 30  1  0  0  0  0
 18 50  1  0  0  0  0
 18 19  2  0  0  0  0
 19 11  1  0  0  0  0
 19 31  1  0  0  0  0
 20 21  2  0  0  0  0
 21 22  1  0  0  0  0
 21 28  1  0  0  0  0
 22 44  1  0  0  0  0
 22 23  2  0  0  0  0
 23 14  1  0  0  0  0
 23 29  1  0  0  0  0
 24 36  1  0  0  0  0
 24 20  1  0  0  0  0
 25 37  1  0  0  0  0
 32 33  1  0  0  0  0
 32 58  1  0  0  0  0
 32 59  1  0  0  0  0
 33 60  1  0  0  0  0
 33 61  1  0  0  0  0
 33 62  1  0  0  0  0
 34 35  1  0  0  0  0
 34 71  1  0  0  0  0
 34 72  1  0  0  0  0
 35 73  1  0  0  0  0
 35 74  1  0  0  0  0
 35 75  1  0  0  0  0
 36 66  1  0  0  0  0
 36 67  1  0  0  0  0
 36 68  1  0  0  0  0
 37 63  1  0  0  0  0
 37 64  1  0  0  0  0
 37 65  1  0  0  0  0
 38 39  1  0  0  0  0
 38 40  1  0  0  0  0
 38 41  1  0  0  0  0
 38 42  1  0  0  0  0
 38 43  1  0  0  0  0
 44 45  1  0  0  0  0
 44 46  1  0  0  0  0
 44 47  1  0  0  0  0
 44 48  1  0  0  0  0
 44 49  1  0  0  0  0
 50 51  1  0  0  0  0
 50 52  1  0  0  0  0
 50 53  1  0  0  0  0
 50 54  1  0  0  0  0
 50 55  1  0  0  0  0
M  CHG  1   1   1
M  END
